[VMEM] WARNING: physical memory size is smaller than virtual memory size.
WARNING: option --warmup_instructions is deprecated. Use --warmup-instructions instead.
WARNING: option --simulation_instructions is deprecated. Use --simulation-instructions instead.

*** ChampSim Multicore Out-of-Order Simulator ***
Warmup Instructions: 200000000
Simulation Instructions: 1000000000
Number of CPUs: 1
Page size: 4096

Off-chip DRAM Size: 16 GiB Channels: 1 Width: 64-bit Data Rate: 3205 MT/s
Heartbeat CPU 0 instructions: 10000004 cycles: 2828439 heartbeat IPC: 3.536 cumulative IPC: 3.536 (Simulation time: 00 hr 00 min 51 sec)
Heartbeat CPU 0 instructions: 20000007 cycles: 5645038 heartbeat IPC: 3.55 cumulative IPC: 3.543 (Simulation time: 00 hr 01 min 43 sec)
Heartbeat CPU 0 instructions: 30000007 cycles: 8462242 heartbeat IPC: 3.55 cumulative IPC: 3.545 (Simulation time: 00 hr 02 min 35 sec)
Heartbeat CPU 0 instructions: 40000009 cycles: 11279299 heartbeat IPC: 3.55 cumulative IPC: 3.546 (Simulation time: 00 hr 03 min 27 sec)
Heartbeat CPU 0 instructions: 50000010 cycles: 14096318 heartbeat IPC: 3.55 cumulative IPC: 3.547 (Simulation time: 00 hr 04 min 18 sec)
Heartbeat CPU 0 instructions: 60000013 cycles: 16913257 heartbeat IPC: 3.55 cumulative IPC: 3.548 (Simulation time: 00 hr 05 min 10 sec)
Heartbeat CPU 0 instructions: 70000016 cycles: 19730707 heartbeat IPC: 3.549 cumulative IPC: 3.548 (Simulation time: 00 hr 06 min 02 sec)
Heartbeat CPU 0 instructions: 80000020 cycles: 22547164 heartbeat IPC: 3.551 cumulative IPC: 3.548 (Simulation time: 00 hr 06 min 54 sec)
Heartbeat CPU 0 instructions: 90000020 cycles: 25364642 heartbeat IPC: 3.549 cumulative IPC: 3.548 (Simulation time: 00 hr 07 min 46 sec)
Heartbeat CPU 0 instructions: 100000024 cycles: 28181861 heartbeat IPC: 3.55 cumulative IPC: 3.548 (Simulation time: 00 hr 08 min 38 sec)
Heartbeat CPU 0 instructions: 110000026 cycles: 30998426 heartbeat IPC: 3.55 cumulative IPC: 3.549 (Simulation time: 00 hr 09 min 30 sec)
Heartbeat CPU 0 instructions: 120000027 cycles: 33815732 heartbeat IPC: 3.549 cumulative IPC: 3.549 (Simulation time: 00 hr 10 min 21 sec)
Heartbeat CPU 0 instructions: 130000028 cycles: 36633370 heartbeat IPC: 3.549 cumulative IPC: 3.549 (Simulation time: 00 hr 11 min 13 sec)
Heartbeat CPU 0 instructions: 140000030 cycles: 39450197 heartbeat IPC: 3.55 cumulative IPC: 3.549 (Simulation time: 00 hr 12 min 05 sec)
Heartbeat CPU 0 instructions: 150000032 cycles: 42267398 heartbeat IPC: 3.55 cumulative IPC: 3.549 (Simulation time: 00 hr 12 min 57 sec)
Heartbeat CPU 0 instructions: 160000033 cycles: 45084736 heartbeat IPC: 3.549 cumulative IPC: 3.549 (Simulation time: 00 hr 13 min 49 sec)
Heartbeat CPU 0 instructions: 170000034 cycles: 47901819 heartbeat IPC: 3.55 cumulative IPC: 3.549 (Simulation time: 00 hr 14 min 41 sec)
Heartbeat CPU 0 instructions: 180000037 cycles: 50718830 heartbeat IPC: 3.55 cumulative IPC: 3.549 (Simulation time: 00 hr 15 min 33 sec)
Heartbeat CPU 0 instructions: 190000041 cycles: 53535875 heartbeat IPC: 3.55 cumulative IPC: 3.549 (Simulation time: 00 hr 16 min 25 sec)
Warmup finished CPU 0 instructions: 200000000 cycles: 56352926 cumulative IPC: 3.549 (Simulation time: 00 hr 17 min 17 sec)
Warmup complete CPU 0 instructions: 200000000 cycles: 56352926 cumulative IPC: 3.549 (Simulation time: 00 hr 17 min 17 sec)
Heartbeat CPU 0 instructions: 200000045 cycles: 56352935 heartbeat IPC: 3.55 cumulative IPC: 5 (Simulation time: 00 hr 17 min 17 sec)
Heartbeat CPU 0 instructions: 210000045 cycles: 74136920 heartbeat IPC: 0.5623 cumulative IPC: 0.5623 (Simulation time: 00 hr 20 min 04 sec)
Heartbeat CPU 0 instructions: 220000045 cycles: 108295806 heartbeat IPC: 0.2927 cumulative IPC: 0.385 (Simulation time: 00 hr 25 min 00 sec)
Heartbeat CPU 0 instructions: 230000048 cycles: 137827138 heartbeat IPC: 0.3386 cumulative IPC: 0.3682 (Simulation time: 00 hr 30 min 58 sec)
Heartbeat CPU 0 instructions: 240000052 cycles: 161722103 heartbeat IPC: 0.4185 cumulative IPC: 0.3796 (Simulation time: 00 hr 35 min 39 sec)
Heartbeat CPU 0 instructions: 250000055 cycles: 174787916 heartbeat IPC: 0.7654 cumulative IPC: 0.4222 (Simulation time: 00 hr 37 min 51 sec)
Heartbeat CPU 0 instructions: 260000056 cycles: 187892615 heartbeat IPC: 0.7631 cumulative IPC: 0.4561 (Simulation time: 00 hr 40 min 03 sec)
Heartbeat CPU 0 instructions: 270000058 cycles: 201035901 heartbeat IPC: 0.7608 cumulative IPC: 0.4838 (Simulation time: 00 hr 42 min 16 sec)
Heartbeat CPU 0 instructions: 280000059 cycles: 214228021 heartbeat IPC: 0.758 cumulative IPC: 0.5067 (Simulation time: 00 hr 44 min 29 sec)
Heartbeat CPU 0 instructions: 290000059 cycles: 227270977 heartbeat IPC: 0.7667 cumulative IPC: 0.5266 (Simulation time: 00 hr 46 min 41 sec)
Heartbeat CPU 0 instructions: 300000063 cycles: 240467099 heartbeat IPC: 0.7578 cumulative IPC: 0.5431 (Simulation time: 00 hr 48 min 54 sec)
Heartbeat CPU 0 instructions: 310000064 cycles: 253660628 heartbeat IPC: 0.7579 cumulative IPC: 0.5575 (Simulation time: 00 hr 51 min 07 sec)
Heartbeat CPU 0 instructions: 320000065 cycles: 266017821 heartbeat IPC: 0.8092 cumulative IPC: 0.5723 (Simulation time: 00 hr 53 min 13 sec)
Heartbeat CPU 0 instructions: 330000069 cycles: 279099329 heartbeat IPC: 0.7644 cumulative IPC: 0.5836 (Simulation time: 00 hr 55 min 26 sec)
Heartbeat CPU 0 instructions: 340000069 cycles: 292154880 heartbeat IPC: 0.766 cumulative IPC: 0.5937 (Simulation time: 00 hr 57 min 38 sec)
Heartbeat CPU 0 instructions: 350000071 cycles: 305236299 heartbeat IPC: 0.7644 cumulative IPC: 0.6027 (Simulation time: 00 hr 59 min 50 sec)
Heartbeat CPU 0 instructions: 360000073 cycles: 318307663 heartbeat IPC: 0.765 cumulative IPC: 0.6108 (Simulation time: 01 hr 02 min 02 sec)
Heartbeat CPU 0 instructions: 370000076 cycles: 331397834 heartbeat IPC: 0.7639 cumulative IPC: 0.6181 (Simulation time: 01 hr 04 min 14 sec)
Heartbeat CPU 0 instructions: 380000076 cycles: 344543479 heartbeat IPC: 0.7607 cumulative IPC: 0.6246 (Simulation time: 01 hr 06 min 26 sec)
Heartbeat CPU 0 instructions: 390000077 cycles: 357601658 heartbeat IPC: 0.7658 cumulative IPC: 0.6307 (Simulation time: 01 hr 08 min 38 sec)
Heartbeat CPU 0 instructions: 400000079 cycles: 370667377 heartbeat IPC: 0.7654 cumulative IPC: 0.6363 (Simulation time: 01 hr 10 min 50 sec)
Heartbeat CPU 0 instructions: 410000081 cycles: 383638538 heartbeat IPC: 0.7709 cumulative IPC: 0.6416 (Simulation time: 01 hr 13 min 01 sec)
Heartbeat CPU 0 instructions: 420000083 cycles: 396722757 heartbeat IPC: 0.7643 cumulative IPC: 0.6464 (Simulation time: 01 hr 15 min 13 sec)
Heartbeat CPU 0 instructions: 430000083 cycles: 409742744 heartbeat IPC: 0.768 cumulative IPC: 0.6508 (Simulation time: 01 hr 17 min 25 sec)
Heartbeat CPU 0 instructions: 440000083 cycles: 422853325 heartbeat IPC: 0.7627 cumulative IPC: 0.6548 (Simulation time: 01 hr 19 min 37 sec)
Heartbeat CPU 0 instructions: 450000085 cycles: 435880953 heartbeat IPC: 0.7676 cumulative IPC: 0.6587 (Simulation time: 01 hr 21 min 50 sec)
Heartbeat CPU 0 instructions: 460000086 cycles: 448989073 heartbeat IPC: 0.7629 cumulative IPC: 0.6622 (Simulation time: 01 hr 24 min 02 sec)
Heartbeat CPU 0 instructions: 470000089 cycles: 462032848 heartbeat IPC: 0.7666 cumulative IPC: 0.6655 (Simulation time: 01 hr 26 min 15 sec)
Heartbeat CPU 0 instructions: 480000090 cycles: 475134670 heartbeat IPC: 0.7633 cumulative IPC: 0.6686 (Simulation time: 01 hr 28 min 27 sec)
Heartbeat CPU 0 instructions: 490000092 cycles: 488236068 heartbeat IPC: 0.7633 cumulative IPC: 0.6715 (Simulation time: 01 hr 30 min 39 sec)
Heartbeat CPU 0 instructions: 500000093 cycles: 501258362 heartbeat IPC: 0.7679 cumulative IPC: 0.6743 (Simulation time: 01 hr 32 min 51 sec)
Heartbeat CPU 0 instructions: 510000095 cycles: 514384467 heartbeat IPC: 0.7618 cumulative IPC: 0.6768 (Simulation time: 01 hr 35 min 04 sec)
Heartbeat CPU 0 instructions: 520000099 cycles: 527431103 heartbeat IPC: 0.7665 cumulative IPC: 0.6793 (Simulation time: 01 hr 37 min 16 sec)
Heartbeat CPU 0 instructions: 530000100 cycles: 546034657 heartbeat IPC: 0.5375 cumulative IPC: 0.6739 (Simulation time: 01 hr 40 min 15 sec)
Heartbeat CPU 0 instructions: 540000104 cycles: 573045298 heartbeat IPC: 0.3702 cumulative IPC: 0.658 (Simulation time: 01 hr 44 min 27 sec)
Heartbeat CPU 0 instructions: 550000108 cycles: 605306251 heartbeat IPC: 0.31 cumulative IPC: 0.6376 (Simulation time: 01 hr 50 min 47 sec)
Heartbeat CPU 0 instructions: 560000112 cycles: 638548947 heartbeat IPC: 0.3008 cumulative IPC: 0.6183 (Simulation time: 01 hr 57 min 29 sec)
Heartbeat CPU 0 instructions: 570000116 cycles: 671252631 heartbeat IPC: 0.3058 cumulative IPC: 0.6017 (Simulation time: 02 hr 04 min 05 sec)
Heartbeat CPU 0 instructions: 580000117 cycles: 691682937 heartbeat IPC: 0.4895 cumulative IPC: 0.5981 (Simulation time: 02 hr 07 min 40 sec)
Heartbeat CPU 0 instructions: 590000117 cycles: 726670466 heartbeat IPC: 0.2858 cumulative IPC: 0.5818 (Simulation time: 02 hr 12 min 56 sec)
Heartbeat CPU 0 instructions: 600000117 cycles: 754318334 heartbeat IPC: 0.3617 cumulative IPC: 0.5731 (Simulation time: 02 hr 18 min 09 sec)
Heartbeat CPU 0 instructions: 610000121 cycles: 780125076 heartbeat IPC: 0.3875 cumulative IPC: 0.5665 (Simulation time: 02 hr 23 min 24 sec)
Heartbeat CPU 0 instructions: 620000125 cycles: 798554168 heartbeat IPC: 0.5426 cumulative IPC: 0.5659 (Simulation time: 02 hr 26 min 55 sec)
Heartbeat CPU 0 instructions: 630000125 cycles: 811155231 heartbeat IPC: 0.7936 cumulative IPC: 0.5697 (Simulation time: 02 hr 29 min 03 sec)
Heartbeat CPU 0 instructions: 640000129 cycles: 823851493 heartbeat IPC: 0.7876 cumulative IPC: 0.5733 (Simulation time: 02 hr 31 min 12 sec)
Heartbeat CPU 0 instructions: 650000130 cycles: 836615959 heartbeat IPC: 0.7834 cumulative IPC: 0.5767 (Simulation time: 02 hr 33 min 22 sec)
Heartbeat CPU 0 instructions: 660000132 cycles: 849360869 heartbeat IPC: 0.7846 cumulative IPC: 0.5801 (Simulation time: 02 hr 35 min 31 sec)
Heartbeat CPU 0 instructions: 670000133 cycles: 862034708 heartbeat IPC: 0.789 cumulative IPC: 0.5834 (Simulation time: 02 hr 37 min 40 sec)
Heartbeat CPU 0 instructions: 680000135 cycles: 874868401 heartbeat IPC: 0.7792 cumulative IPC: 0.5864 (Simulation time: 02 hr 39 min 50 sec)
Heartbeat CPU 0 instructions: 690000136 cycles: 887593174 heartbeat IPC: 0.7859 cumulative IPC: 0.5895 (Simulation time: 02 hr 41 min 59 sec)
Heartbeat CPU 0 instructions: 700000138 cycles: 899286934 heartbeat IPC: 0.8552 cumulative IPC: 0.5932 (Simulation time: 02 hr 44 min 00 sec)
Heartbeat CPU 0 instructions: 710000138 cycles: 911882751 heartbeat IPC: 0.7939 cumulative IPC: 0.5961 (Simulation time: 02 hr 46 min 08 sec)
Heartbeat CPU 0 instructions: 720000142 cycles: 924642231 heartbeat IPC: 0.7837 cumulative IPC: 0.5989 (Simulation time: 02 hr 48 min 17 sec)
Heartbeat CPU 0 instructions: 730000143 cycles: 937436396 heartbeat IPC: 0.7816 cumulative IPC: 0.6015 (Simulation time: 02 hr 50 min 27 sec)
Heartbeat CPU 0 instructions: 740000147 cycles: 950144247 heartbeat IPC: 0.7869 cumulative IPC: 0.6042 (Simulation time: 02 hr 52 min 36 sec)
Heartbeat CPU 0 instructions: 750000147 cycles: 962986298 heartbeat IPC: 0.7787 cumulative IPC: 0.6066 (Simulation time: 02 hr 54 min 46 sec)
Heartbeat CPU 0 instructions: 760000149 cycles: 975801690 heartbeat IPC: 0.7803 cumulative IPC: 0.6091 (Simulation time: 02 hr 56 min 56 sec)
Heartbeat CPU 0 instructions: 770000149 cycles: 988569223 heartbeat IPC: 0.7832 cumulative IPC: 0.6114 (Simulation time: 02 hr 59 min 05 sec)
Heartbeat CPU 0 instructions: 780000149 cycles: 1001317407 heartbeat IPC: 0.7844 cumulative IPC: 0.6138 (Simulation time: 03 hr 01 min 15 sec)
Heartbeat CPU 0 instructions: 790000149 cycles: 1013962843 heartbeat IPC: 0.7908 cumulative IPC: 0.6161 (Simulation time: 03 hr 03 min 23 sec)
Heartbeat CPU 0 instructions: 800000150 cycles: 1026664863 heartbeat IPC: 0.7873 cumulative IPC: 0.6184 (Simulation time: 03 hr 05 min 32 sec)
Heartbeat CPU 0 instructions: 810000152 cycles: 1039409282 heartbeat IPC: 0.7847 cumulative IPC: 0.6205 (Simulation time: 03 hr 07 min 41 sec)
Heartbeat CPU 0 instructions: 820000156 cycles: 1052188056 heartbeat IPC: 0.7825 cumulative IPC: 0.6226 (Simulation time: 03 hr 09 min 50 sec)
Heartbeat CPU 0 instructions: 830000157 cycles: 1064939791 heartbeat IPC: 0.7842 cumulative IPC: 0.6246 (Simulation time: 03 hr 12 min 00 sec)
Heartbeat CPU 0 instructions: 840000160 cycles: 1077670287 heartbeat IPC: 0.7855 cumulative IPC: 0.6266 (Simulation time: 03 hr 14 min 09 sec)
Heartbeat CPU 0 instructions: 850000160 cycles: 1090397222 heartbeat IPC: 0.7857 cumulative IPC: 0.6286 (Simulation time: 03 hr 16 min 18 sec)
Heartbeat CPU 0 instructions: 860000162 cycles: 1103274726 heartbeat IPC: 0.7765 cumulative IPC: 0.6304 (Simulation time: 03 hr 18 min 28 sec)
Heartbeat CPU 0 instructions: 870000162 cycles: 1116100505 heartbeat IPC: 0.7797 cumulative IPC: 0.6322 (Simulation time: 03 hr 20 min 38 sec)
Heartbeat CPU 0 instructions: 880000166 cycles: 1128777883 heartbeat IPC: 0.7888 cumulative IPC: 0.6341 (Simulation time: 03 hr 22 min 47 sec)
Heartbeat CPU 0 instructions: 890000167 cycles: 1141574912 heartbeat IPC: 0.7814 cumulative IPC: 0.6358 (Simulation time: 03 hr 24 min 57 sec)
Heartbeat CPU 0 instructions: 900000167 cycles: 1154323952 heartbeat IPC: 0.7844 cumulative IPC: 0.6375 (Simulation time: 03 hr 27 min 06 sec)
Heartbeat CPU 0 instructions: 910000167 cycles: 1181324116 heartbeat IPC: 0.3704 cumulative IPC: 0.6311 (Simulation time: 03 hr 31 min 11 sec)
Heartbeat CPU 0 instructions: 920000170 cycles: 1213643108 heartbeat IPC: 0.3094 cumulative IPC: 0.6221 (Simulation time: 03 hr 36 min 45 sec)
Heartbeat CPU 0 instructions: 930000170 cycles: 1243257291 heartbeat IPC: 0.3377 cumulative IPC: 0.615 (Simulation time: 03 hr 42 min 47 sec)
Heartbeat CPU 0 instructions: 940000172 cycles: 1260999210 heartbeat IPC: 0.5636 cumulative IPC: 0.6143 (Simulation time: 03 hr 46 min 03 sec)
Heartbeat CPU 0 instructions: 950000172 cycles: 1274142092 heartbeat IPC: 0.7609 cumulative IPC: 0.6159 (Simulation time: 03 hr 48 min 15 sec)
Heartbeat CPU 0 instructions: 960000176 cycles: 1287355196 heartbeat IPC: 0.7568 cumulative IPC: 0.6174 (Simulation time: 03 hr 50 min 28 sec)
Heartbeat CPU 0 instructions: 970000176 cycles: 1300608855 heartbeat IPC: 0.7545 cumulative IPC: 0.6188 (Simulation time: 03 hr 52 min 41 sec)
Heartbeat CPU 0 instructions: 980000180 cycles: 1313792370 heartbeat IPC: 0.7585 cumulative IPC: 0.6203 (Simulation time: 03 hr 54 min 53 sec)
Heartbeat CPU 0 instructions: 990000181 cycles: 1326953189 heartbeat IPC: 0.7598 cumulative IPC: 0.6218 (Simulation time: 03 hr 57 min 06 sec)
*** Reached end of trace: (0, "/scratch/user/sohilsheth21/ChampSim/bwaves_1609B.trace.xz")
Heartbeat CPU 0 instructions: 1000000184 cycles: 1340252718 heartbeat IPC: 0.7519 cumulative IPC: 0.6231 (Simulation time: 03 hr 59 min 19 sec)
Heartbeat CPU 0 instructions: 1010000184 cycles: 1351896110 heartbeat IPC: 0.8589 cumulative IPC: 0.6252 (Simulation time: 04 hr 01 min 20 sec)
Heartbeat CPU 0 instructions: 1020000186 cycles: 1364614935 heartbeat IPC: 0.7862 cumulative IPC: 0.6268 (Simulation time: 04 hr 03 min 29 sec)
Heartbeat CPU 0 instructions: 1030000187 cycles: 1377371195 heartbeat IPC: 0.7839 cumulative IPC: 0.6283 (Simulation time: 04 hr 05 min 38 sec)
Heartbeat CPU 0 instructions: 1040000191 cycles: 1390178595 heartbeat IPC: 0.7808 cumulative IPC: 0.6298 (Simulation time: 04 hr 07 min 48 sec)
Heartbeat CPU 0 instructions: 1050000191 cycles: 1402915382 heartbeat IPC: 0.7851 cumulative IPC: 0.6312 (Simulation time: 04 hr 09 min 57 sec)
Heartbeat CPU 0 instructions: 1060000192 cycles: 1415788133 heartbeat IPC: 0.7768 cumulative IPC: 0.6326 (Simulation time: 04 hr 12 min 07 sec)
Heartbeat CPU 0 instructions: 1070000192 cycles: 1428485216 heartbeat IPC: 0.7876 cumulative IPC: 0.634 (Simulation time: 04 hr 14 min 16 sec)
Heartbeat CPU 0 instructions: 1080000193 cycles: 1441251570 heartbeat IPC: 0.7833 cumulative IPC: 0.6354 (Simulation time: 04 hr 16 min 26 sec)
Heartbeat CPU 0 instructions: 1090000197 cycles: 1453948893 heartbeat IPC: 0.7876 cumulative IPC: 0.6368 (Simulation time: 04 hr 18 min 34 sec)
Heartbeat CPU 0 instructions: 1100000197 cycles: 1466649521 heartbeat IPC: 0.7874 cumulative IPC: 0.6382 (Simulation time: 04 hr 20 min 43 sec)
Heartbeat CPU 0 instructions: 1110000201 cycles: 1479348395 heartbeat IPC: 0.7875 cumulative IPC: 0.6395 (Simulation time: 04 hr 22 min 52 sec)
Heartbeat CPU 0 instructions: 1120000202 cycles: 1492090411 heartbeat IPC: 0.7848 cumulative IPC: 0.6408 (Simulation time: 04 hr 25 min 01 sec)
Heartbeat CPU 0 instructions: 1130000204 cycles: 1504846057 heartbeat IPC: 0.784 cumulative IPC: 0.642 (Simulation time: 04 hr 27 min 11 sec)
Heartbeat CPU 0 instructions: 1140000204 cycles: 1517611091 heartbeat IPC: 0.7834 cumulative IPC: 0.6433 (Simulation time: 04 hr 29 min 20 sec)
Heartbeat CPU 0 instructions: 1150000208 cycles: 1530345463 heartbeat IPC: 0.7853 cumulative IPC: 0.6445 (Simulation time: 04 hr 31 min 29 sec)
Heartbeat CPU 0 instructions: 1160000208 cycles: 1543153594 heartbeat IPC: 0.7808 cumulative IPC: 0.6457 (Simulation time: 04 hr 33 min 39 sec)
Heartbeat CPU 0 instructions: 1170000211 cycles: 1555953030 heartbeat IPC: 0.7813 cumulative IPC: 0.6468 (Simulation time: 04 hr 35 min 49 sec)
Heartbeat CPU 0 instructions: 1180000212 cycles: 1568662645 heartbeat IPC: 0.7868 cumulative IPC: 0.648 (Simulation time: 04 hr 37 min 58 sec)
Heartbeat CPU 0 instructions: 1190000212 cycles: 1581462469 heartbeat IPC: 0.7813 cumulative IPC: 0.6491 (Simulation time: 04 hr 40 min 08 sec)
Simulation finished CPU 0 instructions: 1000000003 cycles: 1537861650 cumulative IPC: 0.6503 (Simulation time: 04 hr 42 min 17 sec)
Simulation complete CPU 0 instructions: 1000000003 cycles: 1537861650 cumulative IPC: 0.6503 (Simulation time: 04 hr 42 min 17 sec)

ChampSim completed all CPUs

=== Simulation ===
CPU 0 runs /scratch/user/sohilsheth21/ChampSim/bwaves_1609B.trace.xz

Region of Interest Statistics

CPU 0 cumulative IPC: 0.6503 instructions: 1000000003 cycles: 1537861650
CPU 0 Branch Prediction Accuracy: 98.14% MPKI: 0.8524 Average ROB Occupancy at Mispredict: 282.9
Branch type MPKI
BRANCH_DIRECT_JUMP: 7e-06
BRANCH_INDIRECT: 0
BRANCH_CONDITIONAL: 0.8524
BRANCH_DIRECT_CALL: 2e-06
BRANCH_INDIRECT_CALL: 0
BRANCH_RETURN: 3e-06

cpu0->cpu0_STLB TOTAL        ACCESS:    1026373 HIT:     677206 MISS:     349167 MSHR_MERGE:          0
cpu0->cpu0_STLB LOAD         ACCESS:    1026373 HIT:     677206 MISS:     349167 MSHR_MERGE:          0
cpu0->cpu0_STLB RFO          ACCESS:          0 HIT:          0 MISS:          0 MSHR_MERGE:          0
cpu0->cpu0_STLB PREFETCH     ACCESS:          0 HIT:          0 MISS:          0 MSHR_MERGE:          0
cpu0->cpu0_STLB WRITE        ACCESS:          0 HIT:          0 MISS:          0 MSHR_MERGE:          0
cpu0->cpu0_STLB TRANSLATION  ACCESS:          0 HIT:          0 MISS:          0 MSHR_MERGE:          0
cpu0->cpu0_STLB PREFETCH REQUESTED:          0 ISSUED:          0 USEFUL:          0 USELESS:          0
cpu0->cpu0_STLB AVERAGE MISS LATENCY: 37.59 cycles
cpu0->cpu0_L2C TOTAL        ACCESS:   25395277 HIT:    2573513 MISS:   22821764 MSHR_MERGE:          0
cpu0->cpu0_L2C LOAD         ACCESS:   23336015 HIT:    1014542 MISS:   22321473 MSHR_MERGE:          0
cpu0->cpu0_L2C RFO          ACCESS:     498478 HIT:          0 MISS:     498478 MSHR_MERGE:          0
cpu0->cpu0_L2C PREFETCH     ACCESS:          0 HIT:          0 MISS:          0 MSHR_MERGE:          0
cpu0->cpu0_L2C WRITE        ACCESS:    1344076 HIT:    1344043 MISS:         33 MSHR_MERGE:          0
cpu0->cpu0_L2C TRANSLATION  ACCESS:     216708 HIT:     214928 MISS:       1780 MSHR_MERGE:          0
cpu0->cpu0_L2C PREFETCH REQUESTED:          0 ISSUED:          0 USEFUL:          0 USELESS:          0
cpu0->cpu0_L2C AVERAGE MISS LATENCY: 260.6 cycles
cpu0->cpu0_L1I TOTAL        ACCESS:  179816902 HIT:  179816806 MISS:         96 MSHR_MERGE:         32
cpu0->cpu0_L1I LOAD         ACCESS:  179816902 HIT:  179816806 MISS:         96 MSHR_MERGE:         32
cpu0->cpu0_L1I RFO          ACCESS:          0 HIT:          0 MISS:          0 MSHR_MERGE:          0
cpu0->cpu0_L1I PREFETCH     ACCESS:          0 HIT:          0 MISS:          0 MSHR_MERGE:          0
cpu0->cpu0_L1I WRITE        ACCESS:          0 HIT:          0 MISS:          0 MSHR_MERGE:          0
cpu0->cpu0_L1I TRANSLATION  ACCESS:          0 HIT:          0 MISS:          0 MSHR_MERGE:          0
cpu0->cpu0_L1I PREFETCH REQUESTED:          0 ISSUED:          0 USEFUL:          0 USELESS:          0
cpu0->cpu0_L1I AVERAGE MISS LATENCY: 230.5 cycles
cpu0->cpu0_L1D TOTAL        ACCESS:  375317825 HIT:  335369441 MISS:   39948384 MSHR_MERGE:   15897247
cpu0->cpu0_L1D LOAD         ACCESS:  345204314 HIT:  306644219 MISS:   38560095 MSHR_MERGE:   15224144
cpu0->cpu0_L1D RFO          ACCESS:          0 HIT:          0 MISS:          0 MSHR_MERGE:          0
cpu0->cpu0_L1D PREFETCH     ACCESS:          0 HIT:          0 MISS:          0 MSHR_MERGE:          0
cpu0->cpu0_L1D WRITE        ACCESS:   29763683 HIT:   28592103 MISS:    1171580 MSHR_MERGE:     673102
cpu0->cpu0_L1D TRANSLATION  ACCESS:     349828 HIT:     133119 MISS:     216709 MSHR_MERGE:          1
cpu0->cpu0_L1D PREFETCH REQUESTED:          0 ISSUED:          0 USEFUL:          0 USELESS:          0
cpu0->cpu0_L1D AVERAGE MISS LATENCY: 256.2 cycles
cpu0->cpu0_ITLB TOTAL        ACCESS:  160283947 HIT:  160283941 MISS:          6 MSHR_MERGE:          4
cpu0->cpu0_ITLB LOAD         ACCESS:  160283947 HIT:  160283941 MISS:          6 MSHR_MERGE:          4
cpu0->cpu0_ITLB RFO          ACCESS:          0 HIT:          0 MISS:          0 MSHR_MERGE:          0
cpu0->cpu0_ITLB PREFETCH     ACCESS:          0 HIT:          0 MISS:          0 MSHR_MERGE:          0
cpu0->cpu0_ITLB WRITE        ACCESS:          0 HIT:          0 MISS:          0 MSHR_MERGE:          0
cpu0->cpu0_ITLB TRANSLATION  ACCESS:          0 HIT:          0 MISS:          0 MSHR_MERGE:          0
cpu0->cpu0_ITLB PREFETCH REQUESTED:          0 ISSUED:          0 USEFUL:          0 USELESS:          0
cpu0->cpu0_ITLB AVERAGE MISS LATENCY: 654.5 cycles
cpu0->cpu0_DTLB TOTAL        ACCESS:  366167982 HIT:  364832918 MISS:    1335064 MSHR_MERGE:     308693
cpu0->cpu0_DTLB LOAD         ACCESS:  366167982 HIT:  364832918 MISS:    1335064 MSHR_MERGE:     308693
cpu0->cpu0_DTLB RFO          ACCESS:          0 HIT:          0 MISS:          0 MSHR_MERGE:          0
cpu0->cpu0_DTLB PREFETCH     ACCESS:          0 HIT:          0 MISS:          0 MSHR_MERGE:          0
cpu0->cpu0_DTLB WRITE        ACCESS:          0 HIT:          0 MISS:          0 MSHR_MERGE:          0
cpu0->cpu0_DTLB TRANSLATION  ACCESS:          0 HIT:          0 MISS:          0 MSHR_MERGE:          0
cpu0->cpu0_DTLB PREFETCH REQUESTED:          0 ISSUED:          0 USEFUL:          0 USELESS:          0
cpu0->cpu0_DTLB AVERAGE MISS LATENCY: 18.13 cycles
cpu0->LLC TOTAL        ACCESS:   24165374 HIT:     112289 MISS:   24053085 MSHR_MERGE:          0
cpu0->LLC LOAD         ACCESS:   22321473 HIT:     103743 MISS:   22217730 MSHR_MERGE:          0
cpu0->LLC RFO          ACCESS:     498478 HIT:       1617 MISS:     496861 MSHR_MERGE:          0
cpu0->LLC PREFETCH     ACCESS:          0 HIT:          0 MISS:          0 MSHR_MERGE:          0
cpu0->LLC WRITE        ACCESS:    1343643 HIT:       6913 MISS:    1336730 MSHR_MERGE:          0
cpu0->LLC TRANSLATION  ACCESS:       1780 HIT:         16 MISS:       1764 MSHR_MERGE:          0
cpu0->LLC PREFETCH REQUESTED:          0 ISSUED:          0 USEFUL:          0 USELESS:          0
cpu0->LLC AVERAGE MISS LATENCY: 232.6 cycles

DRAM Statistics

Channel 0 RQ ROW_BUFFER_HIT:      23504
  ROW_BUFFER_MISS:   22692710
  AVG DBUS CONGESTED CYCLE: 5.768
Channel 0 WQ ROW_BUFFER_HIT:     585699
  ROW_BUFFER_MISS:     753853
  FULL:          0
Channel 0 REFRESHES ISSUED:     128155
