[VMEM] WARNING: physical memory size is smaller than virtual memory size.
WARNING: option --warmup_instructions is deprecated. Use --warmup-instructions instead.
WARNING: option --simulation_instructions is deprecated. Use --simulation-instructions instead.

*** ChampSim Multicore Out-of-Order Simulator ***
Warmup Instructions: 200000000
Simulation Instructions: 1000000000
Number of CPUs: 1
Page size: 4096

Off-chip DRAM Size: 16 GiB Channels: 1 Width: 64-bit Data Rate: 3205 MT/s
Heartbeat CPU 0 instructions: 10000000 cycles: 2532445 heartbeat IPC: 3.949 cumulative IPC: 3.949 (Simulation time: 00 hr 00 min 40 sec)
Heartbeat CPU 0 instructions: 20000001 cycles: 5039980 heartbeat IPC: 3.988 cumulative IPC: 3.968 (Simulation time: 00 hr 01 min 20 sec)
Heartbeat CPU 0 instructions: 30000003 cycles: 7547994 heartbeat IPC: 3.987 cumulative IPC: 3.975 (Simulation time: 00 hr 02 min 00 sec)
Heartbeat CPU 0 instructions: 40000003 cycles: 10056687 heartbeat IPC: 3.986 cumulative IPC: 3.977 (Simulation time: 00 hr 02 min 40 sec)
Heartbeat CPU 0 instructions: 50000004 cycles: 12566228 heartbeat IPC: 3.985 cumulative IPC: 3.979 (Simulation time: 00 hr 03 min 20 sec)
Heartbeat CPU 0 instructions: 60000004 cycles: 15078591 heartbeat IPC: 3.98 cumulative IPC: 3.979 (Simulation time: 00 hr 04 min 00 sec)
Heartbeat CPU 0 instructions: 70000005 cycles: 17589853 heartbeat IPC: 3.982 cumulative IPC: 3.98 (Simulation time: 00 hr 04 min 40 sec)
Heartbeat CPU 0 instructions: 80000008 cycles: 20098780 heartbeat IPC: 3.986 cumulative IPC: 3.98 (Simulation time: 00 hr 05 min 20 sec)
Heartbeat CPU 0 instructions: 90000010 cycles: 22613558 heartbeat IPC: 3.976 cumulative IPC: 3.98 (Simulation time: 00 hr 06 min 00 sec)
Heartbeat CPU 0 instructions: 100000013 cycles: 25128501 heartbeat IPC: 3.976 cumulative IPC: 3.98 (Simulation time: 00 hr 06 min 40 sec)
Heartbeat CPU 0 instructions: 110000014 cycles: 27643018 heartbeat IPC: 3.977 cumulative IPC: 3.979 (Simulation time: 00 hr 07 min 21 sec)
Heartbeat CPU 0 instructions: 120000014 cycles: 30152285 heartbeat IPC: 3.985 cumulative IPC: 3.98 (Simulation time: 00 hr 08 min 01 sec)
Heartbeat CPU 0 instructions: 130000016 cycles: 32672539 heartbeat IPC: 3.968 cumulative IPC: 3.979 (Simulation time: 00 hr 08 min 41 sec)
Heartbeat CPU 0 instructions: 140000019 cycles: 35345567 heartbeat IPC: 3.741 cumulative IPC: 3.961 (Simulation time: 00 hr 09 min 15 sec)
Heartbeat CPU 0 instructions: 150000022 cycles: 37845867 heartbeat IPC: 4 cumulative IPC: 3.963 (Simulation time: 00 hr 09 min 54 sec)
Heartbeat CPU 0 instructions: 160000025 cycles: 40345910 heartbeat IPC: 4 cumulative IPC: 3.966 (Simulation time: 00 hr 10 min 33 sec)
Heartbeat CPU 0 instructions: 170000027 cycles: 42849096 heartbeat IPC: 3.995 cumulative IPC: 3.967 (Simulation time: 00 hr 11 min 14 sec)
Heartbeat CPU 0 instructions: 180000027 cycles: 45349451 heartbeat IPC: 3.999 cumulative IPC: 3.969 (Simulation time: 00 hr 11 min 56 sec)
Heartbeat CPU 0 instructions: 190000028 cycles: 47850120 heartbeat IPC: 3.999 cumulative IPC: 3.971 (Simulation time: 00 hr 12 min 40 sec)
Warmup finished CPU 0 instructions: 200000000 cycles: 50459454 cumulative IPC: 3.964 (Simulation time: 00 hr 13 min 25 sec)
Warmup complete CPU 0 instructions: 200000000 cycles: 50459454 cumulative IPC: 3.964 (Simulation time: 00 hr 13 min 25 sec)
Heartbeat CPU 0 instructions: 200000032 cycles: 50459462 heartbeat IPC: 3.832 cumulative IPC: 4 (Simulation time: 00 hr 13 min 25 sec)
Heartbeat CPU 0 instructions: 210000032 cycles: 55665475 heartbeat IPC: 1.921 cumulative IPC: 1.921 (Simulation time: 00 hr 14 min 28 sec)
Heartbeat CPU 0 instructions: 220000034 cycles: 60856014 heartbeat IPC: 1.927 cumulative IPC: 1.924 (Simulation time: 00 hr 15 min 32 sec)
Heartbeat CPU 0 instructions: 230000037 cycles: 66088362 heartbeat IPC: 1.911 cumulative IPC: 1.92 (Simulation time: 00 hr 16 min 34 sec)
Heartbeat CPU 0 instructions: 240000037 cycles: 71437379 heartbeat IPC: 1.87 cumulative IPC: 1.907 (Simulation time: 00 hr 17 min 45 sec)
Heartbeat CPU 0 instructions: 250000037 cycles: 76660537 heartbeat IPC: 1.915 cumulative IPC: 1.908 (Simulation time: 00 hr 19 min 02 sec)
Heartbeat CPU 0 instructions: 260000037 cycles: 83730368 heartbeat IPC: 1.414 cumulative IPC: 1.803 (Simulation time: 00 hr 20 min 09 sec)
Heartbeat CPU 0 instructions: 270000037 cycles: 91311260 heartbeat IPC: 1.319 cumulative IPC: 1.714 (Simulation time: 00 hr 21 min 17 sec)
Heartbeat CPU 0 instructions: 280000037 cycles: 98912791 heartbeat IPC: 1.316 cumulative IPC: 1.651 (Simulation time: 00 hr 22 min 25 sec)
Heartbeat CPU 0 instructions: 290000037 cycles: 107020361 heartbeat IPC: 1.233 cumulative IPC: 1.591 (Simulation time: 00 hr 23 min 36 sec)
Heartbeat CPU 0 instructions: 300000039 cycles: 115167101 heartbeat IPC: 1.227 cumulative IPC: 1.545 (Simulation time: 00 hr 24 min 49 sec)
Heartbeat CPU 0 instructions: 310000042 cycles: 123850779 heartbeat IPC: 1.152 cumulative IPC: 1.499 (Simulation time: 00 hr 26 min 03 sec)
Heartbeat CPU 0 instructions: 320000045 cycles: 132081113 heartbeat IPC: 1.215 cumulative IPC: 1.47 (Simulation time: 00 hr 27 min 14 sec)
Heartbeat CPU 0 instructions: 330000046 cycles: 140368497 heartbeat IPC: 1.207 cumulative IPC: 1.446 (Simulation time: 00 hr 28 min 28 sec)
Heartbeat CPU 0 instructions: 340000048 cycles: 148815343 heartbeat IPC: 1.184 cumulative IPC: 1.423 (Simulation time: 00 hr 29 min 44 sec)
Heartbeat CPU 0 instructions: 350000049 cycles: 156964094 heartbeat IPC: 1.227 cumulative IPC: 1.408 (Simulation time: 00 hr 30 min 56 sec)
Heartbeat CPU 0 instructions: 360000053 cycles: 165889393 heartbeat IPC: 1.12 cumulative IPC: 1.386 (Simulation time: 00 hr 32 min 15 sec)
Heartbeat CPU 0 instructions: 370000055 cycles: 174920131 heartbeat IPC: 1.107 cumulative IPC: 1.366 (Simulation time: 00 hr 33 min 34 sec)
Heartbeat CPU 0 instructions: 380000059 cycles: 184719484 heartbeat IPC: 1.02 cumulative IPC: 1.341 (Simulation time: 00 hr 35 min 02 sec)
Heartbeat CPU 0 instructions: 390000063 cycles: 195390072 heartbeat IPC: 0.9372 cumulative IPC: 1.311 (Simulation time: 00 hr 36 min 43 sec)
Heartbeat CPU 0 instructions: 400000064 cycles: 206362309 heartbeat IPC: 0.9114 cumulative IPC: 1.283 (Simulation time: 00 hr 38 min 20 sec)
Heartbeat CPU 0 instructions: 410000067 cycles: 213229184 heartbeat IPC: 1.456 cumulative IPC: 1.29 (Simulation time: 00 hr 39 min 21 sec)
Heartbeat CPU 0 instructions: 420000069 cycles: 222673971 heartbeat IPC: 1.059 cumulative IPC: 1.277 (Simulation time: 00 hr 40 min 41 sec)
Heartbeat CPU 0 instructions: 430000073 cycles: 230873938 heartbeat IPC: 1.22 cumulative IPC: 1.275 (Simulation time: 00 hr 42 min 01 sec)
Heartbeat CPU 0 instructions: 440000074 cycles: 238281283 heartbeat IPC: 1.35 cumulative IPC: 1.278 (Simulation time: 00 hr 43 min 16 sec)
Heartbeat CPU 0 instructions: 450000078 cycles: 246104723 heartbeat IPC: 1.278 cumulative IPC: 1.278 (Simulation time: 00 hr 44 min 31 sec)
Heartbeat CPU 0 instructions: 460000078 cycles: 251235069 heartbeat IPC: 1.949 cumulative IPC: 1.295 (Simulation time: 00 hr 45 min 34 sec)
Heartbeat CPU 0 instructions: 470000082 cycles: 256896604 heartbeat IPC: 1.766 cumulative IPC: 1.308 (Simulation time: 00 hr 46 min 39 sec)
Heartbeat CPU 0 instructions: 480000084 cycles: 262479543 heartbeat IPC: 1.791 cumulative IPC: 1.321 (Simulation time: 00 hr 47 min 42 sec)
Heartbeat CPU 0 instructions: 490000086 cycles: 267939254 heartbeat IPC: 1.832 cumulative IPC: 1.333 (Simulation time: 00 hr 48 min 49 sec)
Heartbeat CPU 0 instructions: 500000089 cycles: 273202766 heartbeat IPC: 1.9 cumulative IPC: 1.347 (Simulation time: 00 hr 50 min 10 sec)
Heartbeat CPU 0 instructions: 510000093 cycles: 280669569 heartbeat IPC: 1.339 cumulative IPC: 1.347 (Simulation time: 00 hr 51 min 24 sec)
Heartbeat CPU 0 instructions: 520000093 cycles: 288708249 heartbeat IPC: 1.244 cumulative IPC: 1.343 (Simulation time: 00 hr 52 min 35 sec)
Heartbeat CPU 0 instructions: 530000093 cycles: 297476320 heartbeat IPC: 1.141 cumulative IPC: 1.336 (Simulation time: 00 hr 53 min 50 sec)
Heartbeat CPU 0 instructions: 540000094 cycles: 305933459 heartbeat IPC: 1.182 cumulative IPC: 1.331 (Simulation time: 00 hr 55 min 03 sec)
Heartbeat CPU 0 instructions: 550000094 cycles: 314712556 heartbeat IPC: 1.139 cumulative IPC: 1.324 (Simulation time: 00 hr 56 min 18 sec)
Heartbeat CPU 0 instructions: 560000095 cycles: 323522613 heartbeat IPC: 1.135 cumulative IPC: 1.318 (Simulation time: 00 hr 57 min 33 sec)
Heartbeat CPU 0 instructions: 570000096 cycles: 332574875 heartbeat IPC: 1.105 cumulative IPC: 1.312 (Simulation time: 00 hr 58 min 50 sec)
Heartbeat CPU 0 instructions: 580000096 cycles: 341283304 heartbeat IPC: 1.148 cumulative IPC: 1.307 (Simulation time: 01 hr 00 min 06 sec)
Heartbeat CPU 0 instructions: 590000099 cycles: 350244661 heartbeat IPC: 1.116 cumulative IPC: 1.301 (Simulation time: 01 hr 01 min 24 sec)
Heartbeat CPU 0 instructions: 600000102 cycles: 359445695 heartbeat IPC: 1.087 cumulative IPC: 1.295 (Simulation time: 01 hr 02 min 44 sec)
Heartbeat CPU 0 instructions: 610000104 cycles: 369161454 heartbeat IPC: 1.029 cumulative IPC: 1.286 (Simulation time: 01 hr 04 min 08 sec)
Heartbeat CPU 0 instructions: 620000107 cycles: 378626230 heartbeat IPC: 1.057 cumulative IPC: 1.28 (Simulation time: 01 hr 05 min 30 sec)
Heartbeat CPU 0 instructions: 630000109 cycles: 389467713 heartbeat IPC: 0.9224 cumulative IPC: 1.268 (Simulation time: 01 hr 07 min 09 sec)
Heartbeat CPU 0 instructions: 640000111 cycles: 398951034 heartbeat IPC: 1.054 cumulative IPC: 1.263 (Simulation time: 01 hr 08 min 33 sec)
Heartbeat CPU 0 instructions: 650000112 cycles: 405726927 heartbeat IPC: 1.476 cumulative IPC: 1.267 (Simulation time: 01 hr 09 min 33 sec)
Heartbeat CPU 0 instructions: 660000113 cycles: 414792984 heartbeat IPC: 1.103 cumulative IPC: 1.263 (Simulation time: 01 hr 10 min 49 sec)
Heartbeat CPU 0 instructions: 670000116 cycles: 423286876 heartbeat IPC: 1.177 cumulative IPC: 1.261 (Simulation time: 01 hr 12 min 09 sec)
Heartbeat CPU 0 instructions: 680000118 cycles: 431132041 heartbeat IPC: 1.275 cumulative IPC: 1.261 (Simulation time: 01 hr 13 min 28 sec)
Heartbeat CPU 0 instructions: 690000119 cycles: 439106886 heartbeat IPC: 1.254 cumulative IPC: 1.261 (Simulation time: 01 hr 14 min 45 sec)
Heartbeat CPU 0 instructions: 700000119 cycles: 444981227 heartbeat IPC: 1.702 cumulative IPC: 1.267 (Simulation time: 01 hr 15 min 51 sec)
Heartbeat CPU 0 instructions: 710000119 cycles: 450726862 heartbeat IPC: 1.74 cumulative IPC: 1.274 (Simulation time: 01 hr 16 min 57 sec)
Heartbeat CPU 0 instructions: 720000122 cycles: 456426707 heartbeat IPC: 1.754 cumulative IPC: 1.281 (Simulation time: 01 hr 18 min 02 sec)
Heartbeat CPU 0 instructions: 730000122 cycles: 461866894 heartbeat IPC: 1.838 cumulative IPC: 1.288 (Simulation time: 01 hr 19 min 08 sec)
Heartbeat CPU 0 instructions: 740000123 cycles: 467148627 heartbeat IPC: 1.893 cumulative IPC: 1.296 (Simulation time: 01 hr 20 min 27 sec)
Heartbeat CPU 0 instructions: 750000125 cycles: 474731165 heartbeat IPC: 1.319 cumulative IPC: 1.296 (Simulation time: 01 hr 21 min 45 sec)
Heartbeat CPU 0 instructions: 760000127 cycles: 482650995 heartbeat IPC: 1.263 cumulative IPC: 1.296 (Simulation time: 01 hr 22 min 54 sec)
Heartbeat CPU 0 instructions: 770000127 cycles: 491018576 heartbeat IPC: 1.195 cumulative IPC: 1.294 (Simulation time: 01 hr 24 min 08 sec)
Heartbeat CPU 0 instructions: 780000130 cycles: 499781445 heartbeat IPC: 1.141 cumulative IPC: 1.291 (Simulation time: 01 hr 25 min 23 sec)
Heartbeat CPU 0 instructions: 790000130 cycles: 508461725 heartbeat IPC: 1.152 cumulative IPC: 1.288 (Simulation time: 01 hr 26 min 37 sec)
Heartbeat CPU 0 instructions: 800000132 cycles: 517682181 heartbeat IPC: 1.085 cumulative IPC: 1.284 (Simulation time: 01 hr 27 min 57 sec)
Heartbeat CPU 0 instructions: 810000136 cycles: 525945478 heartbeat IPC: 1.21 cumulative IPC: 1.283 (Simulation time: 01 hr 29 min 09 sec)
Heartbeat CPU 0 instructions: 820000138 cycles: 535136853 heartbeat IPC: 1.088 cumulative IPC: 1.279 (Simulation time: 01 hr 30 min 27 sec)
Heartbeat CPU 0 instructions: 830000139 cycles: 544346279 heartbeat IPC: 1.086 cumulative IPC: 1.276 (Simulation time: 01 hr 31 min 46 sec)
Heartbeat CPU 0 instructions: 840000142 cycles: 553999645 heartbeat IPC: 1.036 cumulative IPC: 1.271 (Simulation time: 01 hr 33 min 09 sec)
Heartbeat CPU 0 instructions: 850000146 cycles: 564305738 heartbeat IPC: 0.9703 cumulative IPC: 1.265 (Simulation time: 01 hr 34 min 37 sec)
Heartbeat CPU 0 instructions: 860000149 cycles: 574416358 heartbeat IPC: 0.9891 cumulative IPC: 1.26 (Simulation time: 01 hr 36 min 07 sec)
Heartbeat CPU 0 instructions: 870000150 cycles: 586577870 heartbeat IPC: 0.8223 cumulative IPC: 1.25 (Simulation time: 01 hr 38 min 00 sec)
Heartbeat CPU 0 instructions: 880000151 cycles: 596358101 heartbeat IPC: 1.022 cumulative IPC: 1.246 (Simulation time: 01 hr 39 min 25 sec)
Heartbeat CPU 0 instructions: 890000151 cycles: 605141232 heartbeat IPC: 1.139 cumulative IPC: 1.244 (Simulation time: 01 hr 40 min 40 sec)
Heartbeat CPU 0 instructions: 900000153 cycles: 615162893 heartbeat IPC: 0.9978 cumulative IPC: 1.24 (Simulation time: 01 hr 42 min 05 sec)
Heartbeat CPU 0 instructions: 910000155 cycles: 622789094 heartbeat IPC: 1.311 cumulative IPC: 1.241 (Simulation time: 01 hr 43 min 23 sec)
Heartbeat CPU 0 instructions: 920000155 cycles: 630349014 heartbeat IPC: 1.323 cumulative IPC: 1.242 (Simulation time: 01 hr 44 min 38 sec)
Heartbeat CPU 0 instructions: 930000158 cycles: 636544961 heartbeat IPC: 1.614 cumulative IPC: 1.246 (Simulation time: 01 hr 45 min 47 sec)
Heartbeat CPU 0 instructions: 940000161 cycles: 642257466 heartbeat IPC: 1.751 cumulative IPC: 1.25 (Simulation time: 01 hr 46 min 54 sec)
Heartbeat CPU 0 instructions: 950000161 cycles: 647914737 heartbeat IPC: 1.768 cumulative IPC: 1.255 (Simulation time: 01 hr 47 min 58 sec)
Heartbeat CPU 0 instructions: 960000164 cycles: 653351986 heartbeat IPC: 1.839 cumulative IPC: 1.261 (Simulation time: 01 hr 49 min 04 sec)
Heartbeat CPU 0 instructions: 970000164 cycles: 658780102 heartbeat IPC: 1.842 cumulative IPC: 1.266 (Simulation time: 01 hr 50 min 22 sec)
Heartbeat CPU 0 instructions: 980000167 cycles: 664749439 heartbeat IPC: 1.675 cumulative IPC: 1.27 (Simulation time: 01 hr 51 min 35 sec)
Heartbeat CPU 0 instructions: 990000167 cycles: 671912683 heartbeat IPC: 1.396 cumulative IPC: 1.271 (Simulation time: 01 hr 52 min 41 sec)
*** Reached end of trace: (0, "/scratch/user/sohilsheth21/ChampSim/bzip2_183B.trace.xz")
Heartbeat CPU 0 instructions: 1000000169 cycles: 678230764 heartbeat IPC: 1.583 cumulative IPC: 1.274 (Simulation time: 01 hr 53 min 41 sec)
Heartbeat CPU 0 instructions: 1010000173 cycles: 684691139 heartbeat IPC: 1.548 cumulative IPC: 1.277 (Simulation time: 01 hr 54 min 41 sec)
Heartbeat CPU 0 instructions: 1020000173 cycles: 691053186 heartbeat IPC: 1.572 cumulative IPC: 1.28 (Simulation time: 01 hr 55 min 42 sec)
Heartbeat CPU 0 instructions: 1030000173 cycles: 698059377 heartbeat IPC: 1.427 cumulative IPC: 1.282 (Simulation time: 01 hr 56 min 46 sec)
Heartbeat CPU 0 instructions: 1040000177 cycles: 705129704 heartbeat IPC: 1.414 cumulative IPC: 1.283 (Simulation time: 01 hr 57 min 52 sec)
Heartbeat CPU 0 instructions: 1050000178 cycles: 712754965 heartbeat IPC: 1.311 cumulative IPC: 1.283 (Simulation time: 01 hr 59 min 01 sec)
Heartbeat CPU 0 instructions: 1060000179 cycles: 720324695 heartbeat IPC: 1.321 cumulative IPC: 1.284 (Simulation time: 02 hr 00 min 11 sec)
Heartbeat CPU 0 instructions: 1070000182 cycles: 729201464 heartbeat IPC: 1.127 cumulative IPC: 1.282 (Simulation time: 02 hr 01 min 27 sec)
Heartbeat CPU 0 instructions: 1080000183 cycles: 737495185 heartbeat IPC: 1.206 cumulative IPC: 1.281 (Simulation time: 02 hr 02 min 41 sec)
Heartbeat CPU 0 instructions: 1090000187 cycles: 745915612 heartbeat IPC: 1.188 cumulative IPC: 1.28 (Simulation time: 02 hr 03 min 59 sec)
Heartbeat CPU 0 instructions: 1100000187 cycles: 755617275 heartbeat IPC: 1.031 cumulative IPC: 1.276 (Simulation time: 02 hr 05 min 22 sec)
Heartbeat CPU 0 instructions: 1110000190 cycles: 765266843 heartbeat IPC: 1.036 cumulative IPC: 1.273 (Simulation time: 02 hr 06 min 45 sec)
Heartbeat CPU 0 instructions: 1120000193 cycles: 772301830 heartbeat IPC: 1.421 cumulative IPC: 1.275 (Simulation time: 02 hr 07 min 52 sec)
Heartbeat CPU 0 instructions: 1130000196 cycles: 783193569 heartbeat IPC: 0.9181 cumulative IPC: 1.269 (Simulation time: 02 hr 09 min 28 sec)
Heartbeat CPU 0 instructions: 1140000199 cycles: 796443571 heartbeat IPC: 0.7547 cumulative IPC: 1.26 (Simulation time: 02 hr 11 min 31 sec)
Heartbeat CPU 0 instructions: 1150000201 cycles: 803132733 heartbeat IPC: 1.495 cumulative IPC: 1.262 (Simulation time: 02 hr 12 min 31 sec)
Heartbeat CPU 0 instructions: 1160000205 cycles: 813128879 heartbeat IPC: 1 cumulative IPC: 1.259 (Simulation time: 02 hr 13 min 53 sec)
Heartbeat CPU 0 instructions: 1170000205 cycles: 821620532 heartbeat IPC: 1.178 cumulative IPC: 1.258 (Simulation time: 02 hr 15 min 12 sec)
Heartbeat CPU 0 instructions: 1180000207 cycles: 829127442 heartbeat IPC: 1.332 cumulative IPC: 1.259 (Simulation time: 02 hr 16 min 28 sec)
Heartbeat CPU 0 instructions: 1190000210 cycles: 836788772 heartbeat IPC: 1.305 cumulative IPC: 1.259 (Simulation time: 02 hr 17 min 43 sec)
Simulation finished CPU 0 instructions: 1000000003 cycles: 792108490 cumulative IPC: 1.262 (Simulation time: 02 hr 18 min 49 sec)
Simulation complete CPU 0 instructions: 1000000003 cycles: 792108490 cumulative IPC: 1.262 (Simulation time: 02 hr 18 min 49 sec)

ChampSim completed all CPUs

=== Simulation ===
CPU 0 runs /scratch/user/sohilsheth21/ChampSim/bzip2_183B.trace.xz

Region of Interest Statistics

CPU 0 cumulative IPC: 1.262 instructions: 1000000003 cycles: 792108490
CPU 0 Branch Prediction Accuracy: 88.91% MPKI: 16.65 Average ROB Occupancy at Mispredict: 21.24
Branch type MPKI
BRANCH_DIRECT_JUMP: 0.02513
BRANCH_INDIRECT: 0
BRANCH_CONDITIONAL: 16.63
BRANCH_DIRECT_CALL: 4e-06
BRANCH_INDIRECT_CALL: 0
BRANCH_RETURN: 4e-06

cpu0->cpu0_STLB TOTAL        ACCESS:    5465786 HIT:    5464132 MISS:       1654 MSHR_MERGE:          0
cpu0->cpu0_STLB LOAD         ACCESS:    5465786 HIT:    5464132 MISS:       1654 MSHR_MERGE:          0
cpu0->cpu0_STLB RFO          ACCESS:          0 HIT:          0 MISS:          0 MSHR_MERGE:          0
cpu0->cpu0_STLB PREFETCH     ACCESS:          0 HIT:          0 MISS:          0 MSHR_MERGE:          0
cpu0->cpu0_STLB WRITE        ACCESS:          0 HIT:          0 MISS:          0 MSHR_MERGE:          0
cpu0->cpu0_STLB TRANSLATION  ACCESS:          0 HIT:          0 MISS:          0 MSHR_MERGE:          0
cpu0->cpu0_STLB PREFETCH REQUESTED:          0 ISSUED:          0 USEFUL:          0 USELESS:          0
cpu0->cpu0_STLB AVERAGE MISS LATENCY: 141.5 cycles
cpu0->cpu0_L2C TOTAL        ACCESS:   16936512 HIT:   11116877 MISS:    5819635 MSHR_MERGE:          0
cpu0->cpu0_L2C LOAD         ACCESS:    9987268 HIT:    6204372 MISS:    3782896 MSHR_MERGE:          0
cpu0->cpu0_L2C RFO          ACCESS:    3058466 HIT:    1024347 MISS:    2034119 MSHR_MERGE:          0
cpu0->cpu0_L2C PREFETCH     ACCESS:          0 HIT:          0 MISS:          0 MSHR_MERGE:          0
cpu0->cpu0_L2C WRITE        ACCESS:    3890318 HIT:    3887958 MISS:       2360 MSHR_MERGE:          0
cpu0->cpu0_L2C TRANSLATION  ACCESS:        460 HIT:        200 MISS:        260 MSHR_MERGE:          0
cpu0->cpu0_L2C PREFETCH REQUESTED:          0 ISSUED:          0 USEFUL:          0 USELESS:          0
cpu0->cpu0_L2C AVERAGE MISS LATENCY: 93.09 cycles
cpu0->cpu0_L1I TOTAL        ACCESS:   64727213 HIT:   64726935 MISS:        278 MSHR_MERGE:         92
cpu0->cpu0_L1I LOAD         ACCESS:   64727213 HIT:   64726935 MISS:        278 MSHR_MERGE:         92
cpu0->cpu0_L1I RFO          ACCESS:          0 HIT:          0 MISS:          0 MSHR_MERGE:          0
cpu0->cpu0_L1I PREFETCH     ACCESS:          0 HIT:          0 MISS:          0 MSHR_MERGE:          0
cpu0->cpu0_L1I WRITE        ACCESS:          0 HIT:          0 MISS:          0 MSHR_MERGE:          0
cpu0->cpu0_L1I TRANSLATION  ACCESS:          0 HIT:          0 MISS:          0 MSHR_MERGE:          0
cpu0->cpu0_L1I PREFETCH REQUESTED:          0 ISSUED:          0 USEFUL:          0 USELESS:          0
cpu0->cpu0_L1I AVERAGE MISS LATENCY: 205.3 cycles
cpu0->cpu0_L1D TOTAL        ACCESS:  307887448 HIT:  289075416 MISS:   18812032 MSHR_MERGE:    5765758
cpu0->cpu0_L1D LOAD         ACCESS:  206406121 HIT:  192900293 MISS:   13505828 MSHR_MERGE:    3518639
cpu0->cpu0_L1D RFO          ACCESS:          0 HIT:          0 MISS:          0 MSHR_MERGE:          0
cpu0->cpu0_L1D PREFETCH     ACCESS:          0 HIT:          0 MISS:          0 MSHR_MERGE:          0
cpu0->cpu0_L1D WRITE        ACCESS:  101479671 HIT:   96173928 MISS:    5305743 MSHR_MERGE:    2247118
cpu0->cpu0_L1D TRANSLATION  ACCESS:       1656 HIT:       1195 MISS:        461 MSHR_MERGE:          1
cpu0->cpu0_L1D PREFETCH REQUESTED:          0 ISSUED:          0 USEFUL:          0 USELESS:          0
cpu0->cpu0_L1D AVERAGE MISS LATENCY: 50.15 cycles
cpu0->cpu0_ITLB TOTAL        ACCESS:   55716785 HIT:   55716785 MISS:          0 MSHR_MERGE:          0
cpu0->cpu0_ITLB LOAD         ACCESS:   55716785 HIT:   55716785 MISS:          0 MSHR_MERGE:          0
cpu0->cpu0_ITLB RFO          ACCESS:          0 HIT:          0 MISS:          0 MSHR_MERGE:          0
cpu0->cpu0_ITLB PREFETCH     ACCESS:          0 HIT:          0 MISS:          0 MSHR_MERGE:          0
cpu0->cpu0_ITLB WRITE        ACCESS:          0 HIT:          0 MISS:          0 MSHR_MERGE:          0
cpu0->cpu0_ITLB TRANSLATION  ACCESS:          0 HIT:          0 MISS:          0 MSHR_MERGE:          0
cpu0->cpu0_ITLB PREFETCH REQUESTED:          0 ISSUED:          0 USEFUL:          0 USELESS:          0
cpu0->cpu0_ITLB AVERAGE MISS LATENCY: - cycles
cpu0->cpu0_DTLB TOTAL        ACCESS:  286958132 HIT:  280750060 MISS:    6208072 MSHR_MERGE:     742286
cpu0->cpu0_DTLB LOAD         ACCESS:  286958132 HIT:  280750060 MISS:    6208072 MSHR_MERGE:     742286
cpu0->cpu0_DTLB RFO          ACCESS:          0 HIT:          0 MISS:          0 MSHR_MERGE:          0
cpu0->cpu0_DTLB PREFETCH     ACCESS:          0 HIT:          0 MISS:          0 MSHR_MERGE:          0
cpu0->cpu0_DTLB WRITE        ACCESS:          0 HIT:          0 MISS:          0 MSHR_MERGE:          0
cpu0->cpu0_DTLB TRANSLATION  ACCESS:          0 HIT:          0 MISS:          0 MSHR_MERGE:          0
cpu0->cpu0_DTLB PREFETCH REQUESTED:          0 ISSUED:          0 USEFUL:          0 USELESS:          0
cpu0->cpu0_DTLB AVERAGE MISS LATENCY: 5.046 cycles
cpu0->LLC TOTAL        ACCESS:    8186564 HIT:    5268834 MISS:    2917730 MSHR_MERGE:          0
cpu0->LLC LOAD         ACCESS:    3782886 HIT:    2533328 MISS:    1249558 MSHR_MERGE:          0
cpu0->LLC RFO          ACCESS:    2034114 HIT:    1263674 MISS:     770440 MSHR_MERGE:          0
cpu0->LLC PREFETCH     ACCESS:          0 HIT:          0 MISS:          0 MSHR_MERGE:          0
cpu0->LLC WRITE        ACCESS:    2369304 HIT:    1471714 MISS:     897590 MSHR_MERGE:          0
cpu0->LLC TRANSLATION  ACCESS:        260 HIT:        118 MISS:        142 MSHR_MERGE:          0
cpu0->LLC PREFETCH REQUESTED:          0 ISSUED:          0 USEFUL:          0 USELESS:          0
cpu0->LLC AVERAGE MISS LATENCY: 157.8 cycles

DRAM Statistics

Channel 0 RQ ROW_BUFFER_HIT:     101547
  ROW_BUFFER_MISS:    1908536
  AVG DBUS CONGESTED CYCLE: 13.97
Channel 0 WQ ROW_BUFFER_HIT:     219387
  ROW_BUFFER_MISS:     788612
  FULL:       3260
Channel 0 REFRESHES ISSUED:      66009
