[VMEM] WARNING: physical memory size is smaller than virtual memory size.
WARNING: option --warmup_instructions is deprecated. Use --warmup-instructions instead.
WARNING: option --simulation_instructions is deprecated. Use --simulation-instructions instead.

*** ChampSim Multicore Out-of-Order Simulator ***
Warmup Instructions: 200000000
Simulation Instructions: 1000000000
Number of CPUs: 1
Page size: 4096

Off-chip DRAM Size: 16 GiB Channels: 1 Width: 64-bit Data Rate: 3205 MT/s
Heartbeat CPU 0 instructions: 10000000 cycles: 2756409 heartbeat IPC: 3.628 cumulative IPC: 3.628 (Simulation time: 00 hr 00 min 42 sec)
Heartbeat CPU 0 instructions: 20000000 cycles: 5518793 heartbeat IPC: 3.62 cumulative IPC: 3.624 (Simulation time: 00 hr 01 min 24 sec)
Heartbeat CPU 0 instructions: 30000003 cycles: 8938359 heartbeat IPC: 2.924 cumulative IPC: 3.356 (Simulation time: 00 hr 02 min 06 sec)
Heartbeat CPU 0 instructions: 40000004 cycles: 11540802 heartbeat IPC: 3.843 cumulative IPC: 3.466 (Simulation time: 00 hr 02 min 39 sec)
Heartbeat CPU 0 instructions: 50000008 cycles: 15575984 heartbeat IPC: 2.478 cumulative IPC: 3.21 (Simulation time: 00 hr 03 min 27 sec)
Heartbeat CPU 0 instructions: 60000009 cycles: 18294703 heartbeat IPC: 3.678 cumulative IPC: 3.28 (Simulation time: 00 hr 04 min 08 sec)
Heartbeat CPU 0 instructions: 70000009 cycles: 21021467 heartbeat IPC: 3.667 cumulative IPC: 3.33 (Simulation time: 00 hr 04 min 49 sec)
Heartbeat CPU 0 instructions: 80000009 cycles: 23751847 heartbeat IPC: 3.662 cumulative IPC: 3.368 (Simulation time: 00 hr 05 min 31 sec)
Heartbeat CPU 0 instructions: 90000010 cycles: 26482191 heartbeat IPC: 3.663 cumulative IPC: 3.399 (Simulation time: 00 hr 06 min 12 sec)
Heartbeat CPU 0 instructions: 100000011 cycles: 29207473 heartbeat IPC: 3.669 cumulative IPC: 3.424 (Simulation time: 00 hr 06 min 53 sec)
Heartbeat CPU 0 instructions: 110000011 cycles: 31936159 heartbeat IPC: 3.665 cumulative IPC: 3.444 (Simulation time: 00 hr 07 min 34 sec)
Heartbeat CPU 0 instructions: 120000011 cycles: 34666511 heartbeat IPC: 3.663 cumulative IPC: 3.462 (Simulation time: 00 hr 08 min 15 sec)
Heartbeat CPU 0 instructions: 130000011 cycles: 37394060 heartbeat IPC: 3.666 cumulative IPC: 3.476 (Simulation time: 00 hr 08 min 56 sec)
Heartbeat CPU 0 instructions: 140000014 cycles: 40119757 heartbeat IPC: 3.669 cumulative IPC: 3.49 (Simulation time: 00 hr 09 min 37 sec)
Heartbeat CPU 0 instructions: 150000018 cycles: 42851018 heartbeat IPC: 3.661 cumulative IPC: 3.501 (Simulation time: 00 hr 10 min 18 sec)
Heartbeat CPU 0 instructions: 160000021 cycles: 45580475 heartbeat IPC: 3.664 cumulative IPC: 3.51 (Simulation time: 00 hr 10 min 58 sec)
Heartbeat CPU 0 instructions: 170000024 cycles: 48305853 heartbeat IPC: 3.669 cumulative IPC: 3.519 (Simulation time: 00 hr 11 min 39 sec)
Heartbeat CPU 0 instructions: 180000026 cycles: 51035176 heartbeat IPC: 3.664 cumulative IPC: 3.527 (Simulation time: 00 hr 12 min 19 sec)
Heartbeat CPU 0 instructions: 190000027 cycles: 53765305 heartbeat IPC: 3.663 cumulative IPC: 3.534 (Simulation time: 00 hr 12 min 59 sec)
Warmup finished CPU 0 instructions: 200000000 cycles: 56493303 cumulative IPC: 3.54 (Simulation time: 00 hr 13 min 40 sec)
Warmup complete CPU 0 instructions: 200000000 cycles: 56493303 cumulative IPC: 3.54 (Simulation time: 00 hr 13 min 40 sec)
Heartbeat CPU 0 instructions: 200000027 cycles: 56493478 heartbeat IPC: 3.665 cumulative IPC: 0.1543 (Simulation time: 00 hr 13 min 40 sec)
Heartbeat CPU 0 instructions: 210000031 cycles: 91570617 heartbeat IPC: 0.2851 cumulative IPC: 0.2851 (Simulation time: 00 hr 19 min 19 sec)
Heartbeat CPU 0 instructions: 220000031 cycles: 126765286 heartbeat IPC: 0.2841 cumulative IPC: 0.2846 (Simulation time: 00 hr 24 min 59 sec)
Heartbeat CPU 0 instructions: 230000035 cycles: 161886956 heartbeat IPC: 0.2847 cumulative IPC: 0.2846 (Simulation time: 00 hr 30 min 38 sec)
Heartbeat CPU 0 instructions: 240000035 cycles: 197042687 heartbeat IPC: 0.2844 cumulative IPC: 0.2846 (Simulation time: 00 hr 36 min 16 sec)
Heartbeat CPU 0 instructions: 250000038 cycles: 232178361 heartbeat IPC: 0.2846 cumulative IPC: 0.2846 (Simulation time: 00 hr 42 min 00 sec)
Heartbeat CPU 0 instructions: 260000041 cycles: 267373498 heartbeat IPC: 0.2841 cumulative IPC: 0.2845 (Simulation time: 00 hr 47 min 41 sec)
Heartbeat CPU 0 instructions: 270000041 cycles: 302513752 heartbeat IPC: 0.2846 cumulative IPC: 0.2845 (Simulation time: 00 hr 53 min 20 sec)
Heartbeat CPU 0 instructions: 280000041 cycles: 337618987 heartbeat IPC: 0.2849 cumulative IPC: 0.2846 (Simulation time: 00 hr 59 min 00 sec)
Heartbeat CPU 0 instructions: 290000041 cycles: 372775782 heartbeat IPC: 0.2844 cumulative IPC: 0.2846 (Simulation time: 01 hr 04 min 43 sec)
Heartbeat CPU 0 instructions: 300000043 cycles: 402519249 heartbeat IPC: 0.3362 cumulative IPC: 0.289 (Simulation time: 01 hr 09 min 34 sec)
Heartbeat CPU 0 instructions: 310000047 cycles: 423059834 heartbeat IPC: 0.4868 cumulative IPC: 0.3001 (Simulation time: 01 hr 13 min 09 sec)
Heartbeat CPU 0 instructions: 320000050 cycles: 443546690 heartbeat IPC: 0.4881 cumulative IPC: 0.31 (Simulation time: 01 hr 16 min 44 sec)
Heartbeat CPU 0 instructions: 330000051 cycles: 463997232 heartbeat IPC: 0.489 cumulative IPC: 0.319 (Simulation time: 01 hr 20 min 19 sec)
Heartbeat CPU 0 instructions: 340000052 cycles: 484495449 heartbeat IPC: 0.4878 cumulative IPC: 0.3271 (Simulation time: 01 hr 23 min 54 sec)
Heartbeat CPU 0 instructions: 350000054 cycles: 524925205 heartbeat IPC: 0.2473 cumulative IPC: 0.3202 (Simulation time: 01 hr 30 min 31 sec)
Heartbeat CPU 0 instructions: 360000057 cycles: 545411006 heartbeat IPC: 0.4881 cumulative IPC: 0.3273 (Simulation time: 01 hr 34 min 06 sec)
Heartbeat CPU 0 instructions: 370000057 cycles: 565861066 heartbeat IPC: 0.489 cumulative IPC: 0.3337 (Simulation time: 01 hr 37 min 41 sec)
Heartbeat CPU 0 instructions: 380000057 cycles: 586286847 heartbeat IPC: 0.4896 cumulative IPC: 0.3398 (Simulation time: 01 hr 41 min 16 sec)
Heartbeat CPU 0 instructions: 390000060 cycles: 606759539 heartbeat IPC: 0.4885 cumulative IPC: 0.3453 (Simulation time: 01 hr 44 min 50 sec)
Heartbeat CPU 0 instructions: 400000062 cycles: 627139070 heartbeat IPC: 0.4907 cumulative IPC: 0.3505 (Simulation time: 01 hr 48 min 24 sec)
Heartbeat CPU 0 instructions: 410000063 cycles: 648878454 heartbeat IPC: 0.46 cumulative IPC: 0.3545 (Simulation time: 01 hr 52 min 15 sec)
Heartbeat CPU 0 instructions: 420000064 cycles: 670613020 heartbeat IPC: 0.4601 cumulative IPC: 0.3582 (Simulation time: 01 hr 56 min 04 sec)
Heartbeat CPU 0 instructions: 430000068 cycles: 692361748 heartbeat IPC: 0.4598 cumulative IPC: 0.3617 (Simulation time: 01 hr 59 min 55 sec)
Heartbeat CPU 0 instructions: 440000071 cycles: 717270578 heartbeat IPC: 0.4015 cumulative IPC: 0.3632 (Simulation time: 02 hr 04 min 14 sec)
Heartbeat CPU 0 instructions: 450000072 cycles: 739004245 heartbeat IPC: 0.4601 cumulative IPC: 0.3663 (Simulation time: 02 hr 08 min 06 sec)
Heartbeat CPU 0 instructions: 460000073 cycles: 760587934 heartbeat IPC: 0.4633 cumulative IPC: 0.3693 (Simulation time: 02 hr 11 min 58 sec)
Heartbeat CPU 0 instructions: 470000075 cycles: 782613190 heartbeat IPC: 0.454 cumulative IPC: 0.3718 (Simulation time: 02 hr 15 min 53 sec)
Heartbeat CPU 0 instructions: 480000076 cycles: 806308719 heartbeat IPC: 0.422 cumulative IPC: 0.3734 (Simulation time: 02 hr 20 min 03 sec)
Heartbeat CPU 0 instructions: 490000080 cycles: 830000511 heartbeat IPC: 0.4221 cumulative IPC: 0.3749 (Simulation time: 02 hr 24 min 13 sec)
Heartbeat CPU 0 instructions: 500000081 cycles: 857156465 heartbeat IPC: 0.3682 cumulative IPC: 0.3747 (Simulation time: 02 hr 28 min 52 sec)
Heartbeat CPU 0 instructions: 510000081 cycles: 879695165 heartbeat IPC: 0.4437 cumulative IPC: 0.3766 (Simulation time: 02 hr 32 min 50 sec)
Heartbeat CPU 0 instructions: 520000082 cycles: 903017242 heartbeat IPC: 0.4288 cumulative IPC: 0.378 (Simulation time: 02 hr 36 min 58 sec)
Heartbeat CPU 0 instructions: 530000085 cycles: 925449655 heartbeat IPC: 0.4458 cumulative IPC: 0.3798 (Simulation time: 02 hr 40 min 50 sec)
Heartbeat CPU 0 instructions: 540000085 cycles: 949088781 heartbeat IPC: 0.423 cumulative IPC: 0.3809 (Simulation time: 02 hr 44 min 21 sec)
Heartbeat CPU 0 instructions: 550000087 cycles: 963207620 heartbeat IPC: 0.7083 cumulative IPC: 0.386 (Simulation time: 02 hr 46 min 14 sec)
Heartbeat CPU 0 instructions: 560000089 cycles: 990168887 heartbeat IPC: 0.3709 cumulative IPC: 0.3856 (Simulation time: 02 hr 49 min 49 sec)
Heartbeat CPU 0 instructions: 570000093 cycles: 1031575776 heartbeat IPC: 0.2415 cumulative IPC: 0.3795 (Simulation time: 02 hr 54 min 56 sec)
Heartbeat CPU 0 instructions: 580000093 cycles: 1049751709 heartbeat IPC: 0.5502 cumulative IPC: 0.3826 (Simulation time: 02 hr 57 min 22 sec)
Heartbeat CPU 0 instructions: 590000094 cycles: 1062838773 heartbeat IPC: 0.7641 cumulative IPC: 0.3875 (Simulation time: 02 hr 59 min 12 sec)
Heartbeat CPU 0 instructions: 600000097 cycles: 1106509173 heartbeat IPC: 0.229 cumulative IPC: 0.3809 (Simulation time: 03 hr 05 min 23 sec)
Heartbeat CPU 0 instructions: 610000097 cycles: 1128256370 heartbeat IPC: 0.4598 cumulative IPC: 0.3825 (Simulation time: 03 hr 08 min 20 sec)
Heartbeat CPU 0 instructions: 620000097 cycles: 1142282789 heartbeat IPC: 0.7129 cumulative IPC: 0.3868 (Simulation time: 03 hr 10 min 16 sec)
Heartbeat CPU 0 instructions: 630000097 cycles: 1174168707 heartbeat IPC: 0.3136 cumulative IPC: 0.3847 (Simulation time: 03 hr 14 min 53 sec)
Heartbeat CPU 0 instructions: 640000097 cycles: 1205960545 heartbeat IPC: 0.3145 cumulative IPC: 0.3828 (Simulation time: 03 hr 19 min 17 sec)
Heartbeat CPU 0 instructions: 650000097 cycles: 1221418518 heartbeat IPC: 0.6469 cumulative IPC: 0.3863 (Simulation time: 03 hr 21 min 25 sec)
Heartbeat CPU 0 instructions: 660000098 cycles: 1239849952 heartbeat IPC: 0.5426 cumulative IPC: 0.3887 (Simulation time: 03 hr 24 min 01 sec)
Heartbeat CPU 0 instructions: 670000099 cycles: 1282913946 heartbeat IPC: 0.2322 cumulative IPC: 0.3832 (Simulation time: 03 hr 30 min 07 sec)
Heartbeat CPU 0 instructions: 680000100 cycles: 1301456496 heartbeat IPC: 0.5393 cumulative IPC: 0.3856 (Simulation time: 03 hr 32 min 35 sec)
Heartbeat CPU 0 instructions: 690000104 cycles: 1314652877 heartbeat IPC: 0.7578 cumulative IPC: 0.3895 (Simulation time: 03 hr 34 min 25 sec)
Heartbeat CPU 0 instructions: 700000105 cycles: 1343684072 heartbeat IPC: 0.3445 cumulative IPC: 0.3884 (Simulation time: 03 hr 39 min 06 sec)
Heartbeat CPU 0 instructions: 710000107 cycles: 1377589393 heartbeat IPC: 0.2949 cumulative IPC: 0.386 (Simulation time: 03 hr 44 min 39 sec)
Heartbeat CPU 0 instructions: 720000107 cycles: 1411463172 heartbeat IPC: 0.2952 cumulative IPC: 0.3838 (Simulation time: 03 hr 50 min 11 sec)
Heartbeat CPU 0 instructions: 730000108 cycles: 1445430801 heartbeat IPC: 0.2944 cumulative IPC: 0.3816 (Simulation time: 03 hr 55 min 44 sec)
Heartbeat CPU 0 instructions: 740000109 cycles: 1479343989 heartbeat IPC: 0.2949 cumulative IPC: 0.3795 (Simulation time: 04 hr 01 min 18 sec)
Heartbeat CPU 0 instructions: 750000110 cycles: 1513335596 heartbeat IPC: 0.2942 cumulative IPC: 0.3775 (Simulation time: 04 hr 06 min 51 sec)
Heartbeat CPU 0 instructions: 760000114 cycles: 1547121841 heartbeat IPC: 0.296 cumulative IPC: 0.3757 (Simulation time: 04 hr 12 min 22 sec)
Heartbeat CPU 0 instructions: 770000116 cycles: 1581010140 heartbeat IPC: 0.2951 cumulative IPC: 0.3739 (Simulation time: 04 hr 17 min 54 sec)
Heartbeat CPU 0 instructions: 780000118 cycles: 1614870427 heartbeat IPC: 0.2953 cumulative IPC: 0.3722 (Simulation time: 04 hr 23 min 24 sec)
Heartbeat CPU 0 instructions: 790000118 cycles: 1648775740 heartbeat IPC: 0.2949 cumulative IPC: 0.3705 (Simulation time: 04 hr 28 min 55 sec)
Heartbeat CPU 0 instructions: 800000120 cycles: 1682590312 heartbeat IPC: 0.2957 cumulative IPC: 0.369 (Simulation time: 04 hr 34 min 22 sec)
Heartbeat CPU 0 instructions: 810000123 cycles: 1716546557 heartbeat IPC: 0.2945 cumulative IPC: 0.3675 (Simulation time: 04 hr 39 min 53 sec)
Heartbeat CPU 0 instructions: 820000123 cycles: 1750366422 heartbeat IPC: 0.2957 cumulative IPC: 0.366 (Simulation time: 04 hr 45 min 23 sec)
Heartbeat CPU 0 instructions: 830000123 cycles: 1784348444 heartbeat IPC: 0.2943 cumulative IPC: 0.3646 (Simulation time: 04 hr 50 min 55 sec)
Heartbeat CPU 0 instructions: 840000123 cycles: 1818081491 heartbeat IPC: 0.2964 cumulative IPC: 0.3633 (Simulation time: 04 hr 56 min 23 sec)
Heartbeat CPU 0 instructions: 850000127 cycles: 1851916698 heartbeat IPC: 0.2956 cumulative IPC: 0.362 (Simulation time: 05 hr 01 min 53 sec)
Heartbeat CPU 0 instructions: 860000130 cycles: 1885783494 heartbeat IPC: 0.2953 cumulative IPC: 0.3608 (Simulation time: 05 hr 07 min 23 sec)
Heartbeat CPU 0 instructions: 870000132 cycles: 1919685738 heartbeat IPC: 0.295 cumulative IPC: 0.3596 (Simulation time: 05 hr 12 min 55 sec)
Heartbeat CPU 0 instructions: 880000132 cycles: 1953521545 heartbeat IPC: 0.2955 cumulative IPC: 0.3585 (Simulation time: 05 hr 18 min 26 sec)
Heartbeat CPU 0 instructions: 890000132 cycles: 1987421051 heartbeat IPC: 0.295 cumulative IPC: 0.3573 (Simulation time: 05 hr 23 min 56 sec)
Heartbeat CPU 0 instructions: 900000135 cycles: 2021301275 heartbeat IPC: 0.2952 cumulative IPC: 0.3563 (Simulation time: 05 hr 29 min 24 sec)
Heartbeat CPU 0 instructions: 910000135 cycles: 2055112387 heartbeat IPC: 0.2958 cumulative IPC: 0.3552 (Simulation time: 05 hr 34 min 51 sec)
Heartbeat CPU 0 instructions: 920000139 cycles: 2088961165 heartbeat IPC: 0.2954 cumulative IPC: 0.3542 (Simulation time: 05 hr 40 min 16 sec)
Heartbeat CPU 0 instructions: 930000139 cycles: 2122759363 heartbeat IPC: 0.2959 cumulative IPC: 0.3533 (Simulation time: 05 hr 45 min 35 sec)
Heartbeat CPU 0 instructions: 940000140 cycles: 2156671404 heartbeat IPC: 0.2949 cumulative IPC: 0.3524 (Simulation time: 05 hr 50 min 53 sec)
Heartbeat CPU 0 instructions: 950000142 cycles: 2182843031 heartbeat IPC: 0.3821 cumulative IPC: 0.3527 (Simulation time: 05 hr 55 min 11 sec)
Heartbeat CPU 0 instructions: 960000142 cycles: 2207535095 heartbeat IPC: 0.405 cumulative IPC: 0.3533 (Simulation time: 05 hr 59 min 14 sec)
Heartbeat CPU 0 instructions: 970000142 cycles: 2232205496 heartbeat IPC: 0.4053 cumulative IPC: 0.3539 (Simulation time: 06 hr 03 min 21 sec)
Heartbeat CPU 0 instructions: 980000146 cycles: 2256905707 heartbeat IPC: 0.4049 cumulative IPC: 0.3545 (Simulation time: 06 hr 07 min 35 sec)
Heartbeat CPU 0 instructions: 990000150 cycles: 2281585453 heartbeat IPC: 0.4052 cumulative IPC: 0.355 (Simulation time: 06 hr 11 min 38 sec)
*** Reached end of trace: (0, "/scratch/user/sohilsheth21/ChampSim/GemsFDTD_109B.trace.xz")
Heartbeat CPU 0 instructions: 1000000152 cycles: 2315237389 heartbeat IPC: 0.2972 cumulative IPC: 0.3542 (Simulation time: 06 hr 16 min 58 sec)
Heartbeat CPU 0 instructions: 1010000155 cycles: 2341922198 heartbeat IPC: 0.3747 cumulative IPC: 0.3544 (Simulation time: 06 hr 21 min 19 sec)
Heartbeat CPU 0 instructions: 1020000156 cycles: 2370893144 heartbeat IPC: 0.3452 cumulative IPC: 0.3543 (Simulation time: 06 hr 26 min 01 sec)
Heartbeat CPU 0 instructions: 1030000157 cycles: 2395681641 heartbeat IPC: 0.4034 cumulative IPC: 0.3548 (Simulation time: 06 hr 29 min 30 sec)
Heartbeat CPU 0 instructions: 1040000161 cycles: 2409474635 heartbeat IPC: 0.725 cumulative IPC: 0.357 (Simulation time: 06 hr 31 min 15 sec)
Heartbeat CPU 0 instructions: 1050000165 cycles: 2435789466 heartbeat IPC: 0.38 cumulative IPC: 0.3572 (Simulation time: 06 hr 34 min 52 sec)
Heartbeat CPU 0 instructions: 1060000168 cycles: 2475885846 heartbeat IPC: 0.2494 cumulative IPC: 0.3555 (Simulation time: 06 hr 41 min 10 sec)
Heartbeat CPU 0 instructions: 1070000169 cycles: 2515750512 heartbeat IPC: 0.2508 cumulative IPC: 0.3538 (Simulation time: 06 hr 47 min 27 sec)
Heartbeat CPU 0 instructions: 1080000169 cycles: 2555659655 heartbeat IPC: 0.2506 cumulative IPC: 0.3521 (Simulation time: 06 hr 53 min 44 sec)
Heartbeat CPU 0 instructions: 1090000173 cycles: 2595556392 heartbeat IPC: 0.2506 cumulative IPC: 0.3505 (Simulation time: 07 hr 00 min 01 sec)
Heartbeat CPU 0 instructions: 1100000173 cycles: 2635409037 heartbeat IPC: 0.2509 cumulative IPC: 0.349 (Simulation time: 07 hr 06 min 19 sec)
Heartbeat CPU 0 instructions: 1110000173 cycles: 2675309679 heartbeat IPC: 0.2506 cumulative IPC: 0.3475 (Simulation time: 07 hr 12 min 36 sec)
Heartbeat CPU 0 instructions: 1120000174 cycles: 2715158796 heartbeat IPC: 0.2509 cumulative IPC: 0.346 (Simulation time: 07 hr 18 min 53 sec)
Heartbeat CPU 0 instructions: 1130000175 cycles: 2755067371 heartbeat IPC: 0.2506 cumulative IPC: 0.3446 (Simulation time: 07 hr 25 min 11 sec)
Heartbeat CPU 0 instructions: 1140000178 cycles: 2794811330 heartbeat IPC: 0.2516 cumulative IPC: 0.3433 (Simulation time: 07 hr 31 min 30 sec)
Heartbeat CPU 0 instructions: 1150000178 cycles: 2834547382 heartbeat IPC: 0.2517 cumulative IPC: 0.342 (Simulation time: 07 hr 37 min 45 sec)
Heartbeat CPU 0 instructions: 1160000178 cycles: 2874288795 heartbeat IPC: 0.2516 cumulative IPC: 0.3407 (Simulation time: 07 hr 44 min 02 sec)
Heartbeat CPU 0 instructions: 1170000182 cycles: 2914071447 heartbeat IPC: 0.2514 cumulative IPC: 0.3394 (Simulation time: 07 hr 50 min 19 sec)
Heartbeat CPU 0 instructions: 1180000183 cycles: 2953738761 heartbeat IPC: 0.2521 cumulative IPC: 0.3383 (Simulation time: 07 hr 56 min 36 sec)
Heartbeat CPU 0 instructions: 1190000184 cycles: 2993537740 heartbeat IPC: 0.2513 cumulative IPC: 0.3371 (Simulation time: 08 hr 02 min 53 sec)
Simulation finished CPU 0 instructions: 1000000000 cycles: 2976652334 cumulative IPC: 0.3359 (Simulation time: 08 hr 09 min 08 sec)
Simulation complete CPU 0 instructions: 1000000000 cycles: 2976652334 cumulative IPC: 0.3359 (Simulation time: 08 hr 09 min 08 sec)

ChampSim completed all CPUs

=== Simulation ===
CPU 0 runs /scratch/user/sohilsheth21/ChampSim/GemsFDTD_109B.trace.xz

Region of Interest Statistics

CPU 0 cumulative IPC: 0.3359 instructions: 1000000000 cycles: 2976652334
CPU 0 Branch Prediction Accuracy: 96.75% MPKI: 0.722 Average ROB Occupancy at Mispredict: 95.27
Branch type MPKI
BRANCH_DIRECT_JUMP: 0.003151
BRANCH_INDIRECT: 1e-06
BRANCH_CONDITIONAL: 0.4418
BRANCH_DIRECT_CALL: 7e-05
BRANCH_INDIRECT_CALL: 0
BRANCH_RETURN: 0.277

cpu0->cpu0_STLB TOTAL        ACCESS:    6052215 HIT:    4364351 MISS:    1687864 MSHR_MERGE:          0
cpu0->cpu0_STLB LOAD         ACCESS:    6052215 HIT:    4364351 MISS:    1687864 MSHR_MERGE:          0
cpu0->cpu0_STLB RFO          ACCESS:          0 HIT:          0 MISS:          0 MSHR_MERGE:          0
cpu0->cpu0_STLB PREFETCH     ACCESS:          0 HIT:          0 MISS:          0 MSHR_MERGE:          0
cpu0->cpu0_STLB WRITE        ACCESS:          0 HIT:          0 MISS:          0 MSHR_MERGE:          0
cpu0->cpu0_STLB TRANSLATION  ACCESS:          0 HIT:          0 MISS:          0 MSHR_MERGE:          0
cpu0->cpu0_STLB PREFETCH REQUESTED:          0 ISSUED:          0 USEFUL:          0 USELESS:          0
cpu0->cpu0_STLB AVERAGE MISS LATENCY: 81.2 cycles
cpu0->cpu0_L2C TOTAL        ACCESS:   55516785 HIT:   25407251 MISS:   30109534 MSHR_MERGE:          0
cpu0->cpu0_L2C LOAD         ACCESS:   39978406 HIT:   10480292 MISS:   29498114 MSHR_MERGE:          0
cpu0->cpu0_L2C RFO          ACCESS:     310319 HIT:      72502 MISS:     237817 MSHR_MERGE:          0
cpu0->cpu0_L2C PREFETCH     ACCESS:          0 HIT:          0 MISS:          0 MSHR_MERGE:          0
cpu0->cpu0_L2C WRITE        ACCESS:   13896578 HIT:   13895396 MISS:       1182 MSHR_MERGE:          0
cpu0->cpu0_L2C TRANSLATION  ACCESS:    1331482 HIT:     959061 MISS:     372421 MSHR_MERGE:          0
cpu0->cpu0_L2C PREFETCH REQUESTED:          0 ISSUED:          0 USEFUL:          0 USELESS:          0
cpu0->cpu0_L2C AVERAGE MISS LATENCY: 270.3 cycles
cpu0->cpu0_L1I TOTAL        ACCESS:  212075747 HIT:  212072437 MISS:       3310 MSHR_MERGE:       1304
cpu0->cpu0_L1I LOAD         ACCESS:  212075747 HIT:  212072437 MISS:       3310 MSHR_MERGE:       1304
cpu0->cpu0_L1I RFO          ACCESS:          0 HIT:          0 MISS:          0 MSHR_MERGE:          0
cpu0->cpu0_L1I PREFETCH     ACCESS:          0 HIT:          0 MISS:          0 MSHR_MERGE:          0
cpu0->cpu0_L1I WRITE        ACCESS:          0 HIT:          0 MISS:          0 MSHR_MERGE:          0
cpu0->cpu0_L1I TRANSLATION  ACCESS:          0 HIT:          0 MISS:          0 MSHR_MERGE:          0
cpu0->cpu0_L1I PREFETCH REQUESTED:          0 ISSUED:          0 USEFUL:          0 USELESS:          0
cpu0->cpu0_L1I AVERAGE MISS LATENCY: 301.5 cycles
cpu0->cpu0_L1D TOTAL        ACCESS:  359107564 HIT:  297844242 MISS:   61263322 MSHR_MERGE:   19644630
cpu0->cpu0_L1D LOAD         ACCESS:  250376277 HIT:  192312046 MISS:   58064231 MSHR_MERGE:   18087830
cpu0->cpu0_L1D RFO          ACCESS:          0 HIT:          0 MISS:          0 MSHR_MERGE:          0
cpu0->cpu0_L1D PREFETCH     ACCESS:          0 HIT:          0 MISS:          0 MSHR_MERGE:          0
cpu0->cpu0_L1D WRITE        ACCESS:  106891010 HIT:  105023762 MISS:    1867248 MSHR_MERGE:    1556439
cpu0->cpu0_L1D TRANSLATION  ACCESS:    1840277 HIT:     508434 MISS:    1331843 MSHR_MERGE:        361
cpu0->cpu0_L1D PREFETCH REQUESTED:          0 ISSUED:          0 USEFUL:          0 USELESS:          0
cpu0->cpu0_L1D AVERAGE MISS LATENCY: 204.3 cycles
cpu0->cpu0_ITLB TOTAL        ACCESS:  175696700 HIT:  175696530 MISS:        170 MSHR_MERGE:        134
cpu0->cpu0_ITLB LOAD         ACCESS:  175696700 HIT:  175696530 MISS:        170 MSHR_MERGE:        134
cpu0->cpu0_ITLB RFO          ACCESS:          0 HIT:          0 MISS:          0 MSHR_MERGE:          0
cpu0->cpu0_ITLB PREFETCH     ACCESS:          0 HIT:          0 MISS:          0 MSHR_MERGE:          0
cpu0->cpu0_ITLB WRITE        ACCESS:          0 HIT:          0 MISS:          0 MSHR_MERGE:          0
cpu0->cpu0_ITLB TRANSLATION  ACCESS:          0 HIT:          0 MISS:          0 MSHR_MERGE:          0
cpu0->cpu0_ITLB PREFETCH REQUESTED:          0 ISSUED:          0 USEFUL:          0 USELESS:          0
cpu0->cpu0_ITLB AVERAGE MISS LATENCY: 734.4 cycles
cpu0->cpu0_DTLB TOTAL        ACCESS:  340020673 HIT:  333351552 MISS:    6669121 MSHR_MERGE:     616942
cpu0->cpu0_DTLB LOAD         ACCESS:  340020673 HIT:  333351552 MISS:    6669121 MSHR_MERGE:     616942
cpu0->cpu0_DTLB RFO          ACCESS:          0 HIT:          0 MISS:          0 MSHR_MERGE:          0
cpu0->cpu0_DTLB PREFETCH     ACCESS:          0 HIT:          0 MISS:          0 MSHR_MERGE:          0
cpu0->cpu0_DTLB WRITE        ACCESS:          0 HIT:          0 MISS:          0 MSHR_MERGE:          0
cpu0->cpu0_DTLB TRANSLATION  ACCESS:          0 HIT:          0 MISS:          0 MSHR_MERGE:          0
cpu0->cpu0_DTLB PREFETCH REQUESTED:          0 ISSUED:          0 USEFUL:          0 USELESS:          0
cpu0->cpu0_DTLB AVERAGE MISS LATENCY: 27.92 cycles
cpu0->LLC TOTAL        ACCESS:   42290883 HIT:     183867 MISS:   42107016 MSHR_MERGE:          0
cpu0->LLC LOAD         ACCESS:   29498114 HIT:     137471 MISS:   29360643 MSHR_MERGE:          0
cpu0->LLC RFO          ACCESS:     237817 HIT:       3366 MISS:     234451 MSHR_MERGE:          0
cpu0->LLC PREFETCH     ACCESS:          0 HIT:          0 MISS:          0 MSHR_MERGE:          0
cpu0->LLC WRITE        ACCESS:   12182531 HIT:      42881 MISS:   12139650 MSHR_MERGE:          0
cpu0->LLC TRANSLATION  ACCESS:     372421 HIT:        149 MISS:     372272 MSHR_MERGE:          0
cpu0->LLC PREFETCH REQUESTED:          0 ISSUED:          0 USEFUL:          0 USELESS:          0
cpu0->LLC AVERAGE MISS LATENCY: 184.5 cycles

DRAM Statistics

Channel 0 RQ ROW_BUFFER_HIT:      58583
  ROW_BUFFER_MISS:   29900846
  AVG DBUS CONGESTED CYCLE: 6
Channel 0 WQ ROW_BUFFER_HIT:    4121987
  ROW_BUFFER_MISS:    8018178
  FULL:       1061
Channel 0 REFRESHES ISSUED:     248055
