[VMEM] WARNING: physical memory size is smaller than virtual memory size.
WARNING: option --warmup_instructions is deprecated. Use --warmup-instructions instead.
WARNING: option --simulation_instructions is deprecated. Use --simulation-instructions instead.

*** ChampSim Multicore Out-of-Order Simulator ***
Warmup Instructions: 200000000
Simulation Instructions: 1000000000
Number of CPUs: 1
Page size: 4096

Off-chip DRAM Size: 16 GiB Channels: 1 Width: 64-bit Data Rate: 3205 MT/s
Heartbeat CPU 0 instructions: 10000003 cycles: 2772431 heartbeat IPC: 3.607 cumulative IPC: 3.607 (Simulation time: 00 hr 00 min 39 sec)
Heartbeat CPU 0 instructions: 20000004 cycles: 5528440 heartbeat IPC: 3.628 cumulative IPC: 3.618 (Simulation time: 00 hr 01 min 17 sec)
Heartbeat CPU 0 instructions: 30000004 cycles: 8283349 heartbeat IPC: 3.63 cumulative IPC: 3.622 (Simulation time: 00 hr 01 min 56 sec)
Heartbeat CPU 0 instructions: 40000008 cycles: 11172369 heartbeat IPC: 3.461 cumulative IPC: 3.58 (Simulation time: 00 hr 02 min 35 sec)
Heartbeat CPU 0 instructions: 50000011 cycles: 14125503 heartbeat IPC: 3.386 cumulative IPC: 3.54 (Simulation time: 00 hr 03 min 14 sec)
Heartbeat CPU 0 instructions: 60000012 cycles: 17104969 heartbeat IPC: 3.356 cumulative IPC: 3.508 (Simulation time: 00 hr 03 min 56 sec)
Heartbeat CPU 0 instructions: 70000014 cycles: 19950580 heartbeat IPC: 3.514 cumulative IPC: 3.509 (Simulation time: 00 hr 04 min 37 sec)
Heartbeat CPU 0 instructions: 80000015 cycles: 22725827 heartbeat IPC: 3.603 cumulative IPC: 3.52 (Simulation time: 00 hr 05 min 18 sec)
Heartbeat CPU 0 instructions: 90000016 cycles: 25478658 heartbeat IPC: 3.633 cumulative IPC: 3.532 (Simulation time: 00 hr 05 min 59 sec)
Heartbeat CPU 0 instructions: 100000018 cycles: 28234212 heartbeat IPC: 3.629 cumulative IPC: 3.542 (Simulation time: 00 hr 06 min 39 sec)
Heartbeat CPU 0 instructions: 110000018 cycles: 30871961 heartbeat IPC: 3.791 cumulative IPC: 3.563 (Simulation time: 00 hr 07 min 17 sec)
Heartbeat CPU 0 instructions: 120000018 cycles: 33472338 heartbeat IPC: 3.846 cumulative IPC: 3.585 (Simulation time: 00 hr 07 min 53 sec)
Heartbeat CPU 0 instructions: 130000021 cycles: 36183549 heartbeat IPC: 3.688 cumulative IPC: 3.593 (Simulation time: 00 hr 08 min 34 sec)
Heartbeat CPU 0 instructions: 140000023 cycles: 38981402 heartbeat IPC: 3.574 cumulative IPC: 3.591 (Simulation time: 00 hr 09 min 15 sec)
Heartbeat CPU 0 instructions: 150000026 cycles: 41779270 heartbeat IPC: 3.574 cumulative IPC: 3.59 (Simulation time: 00 hr 09 min 56 sec)
Heartbeat CPU 0 instructions: 160000026 cycles: 44572779 heartbeat IPC: 3.58 cumulative IPC: 3.59 (Simulation time: 00 hr 10 min 38 sec)
Heartbeat CPU 0 instructions: 170000029 cycles: 47370327 heartbeat IPC: 3.575 cumulative IPC: 3.589 (Simulation time: 00 hr 11 min 19 sec)
Heartbeat CPU 0 instructions: 180000032 cycles: 50207950 heartbeat IPC: 3.524 cumulative IPC: 3.585 (Simulation time: 00 hr 11 min 59 sec)
Heartbeat CPU 0 instructions: 190000032 cycles: 53059218 heartbeat IPC: 3.507 cumulative IPC: 3.581 (Simulation time: 00 hr 12 min 39 sec)
Warmup finished CPU 0 instructions: 200000001 cycles: 56105740 cumulative IPC: 3.565 (Simulation time: 00 hr 13 min 19 sec)
Warmup complete CPU 0 instructions: 200000001 cycles: 56105740 cumulative IPC: 3.565 (Simulation time: 00 hr 13 min 19 sec)
Heartbeat CPU 0 instructions: 200000033 cycles: 56105748 heartbeat IPC: 3.282 cumulative IPC: 4 (Simulation time: 00 hr 13 min 19 sec)
Heartbeat CPU 0 instructions: 210000035 cycles: 85067632 heartbeat IPC: 0.3453 cumulative IPC: 0.3453 (Simulation time: 00 hr 17 min 33 sec)
Heartbeat CPU 0 instructions: 220000035 cycles: 106851137 heartbeat IPC: 0.4591 cumulative IPC: 0.3941 (Simulation time: 00 hr 20 min 47 sec)
Heartbeat CPU 0 instructions: 230000038 cycles: 117648155 heartbeat IPC: 0.9262 cumulative IPC: 0.4875 (Simulation time: 00 hr 22 min 22 sec)
Heartbeat CPU 0 instructions: 240000039 cycles: 129941137 heartbeat IPC: 0.8135 cumulative IPC: 0.5417 (Simulation time: 00 hr 24 min 09 sec)
Heartbeat CPU 0 instructions: 250000042 cycles: 142900783 heartbeat IPC: 0.7716 cumulative IPC: 0.5761 (Simulation time: 00 hr 26 min 00 sec)
Heartbeat CPU 0 instructions: 260000043 cycles: 155865813 heartbeat IPC: 0.7713 cumulative IPC: 0.6014 (Simulation time: 00 hr 27 min 50 sec)
Heartbeat CPU 0 instructions: 270000047 cycles: 176002674 heartbeat IPC: 0.4966 cumulative IPC: 0.5838 (Simulation time: 00 hr 30 min 51 sec)
Heartbeat CPU 0 instructions: 280000048 cycles: 207059126 heartbeat IPC: 0.322 cumulative IPC: 0.53 (Simulation time: 00 hr 35 min 20 sec)
Heartbeat CPU 0 instructions: 290000052 cycles: 235942808 heartbeat IPC: 0.3462 cumulative IPC: 0.5005 (Simulation time: 00 hr 39 min 35 sec)
Heartbeat CPU 0 instructions: 300000052 cycles: 253868817 heartbeat IPC: 0.5578 cumulative IPC: 0.5057 (Simulation time: 00 hr 42 min 04 sec)
Heartbeat CPU 0 instructions: 310000055 cycles: 273067326 heartbeat IPC: 0.5209 cumulative IPC: 0.507 (Simulation time: 00 hr 44 min 41 sec)
Heartbeat CPU 0 instructions: 320000057 cycles: 293432863 heartbeat IPC: 0.491 cumulative IPC: 0.5056 (Simulation time: 00 hr 47 min 28 sec)
Heartbeat CPU 0 instructions: 330000059 cycles: 313914029 heartbeat IPC: 0.4883 cumulative IPC: 0.5043 (Simulation time: 00 hr 50 min 16 sec)
Heartbeat CPU 0 instructions: 340000061 cycles: 342684696 heartbeat IPC: 0.3476 cumulative IPC: 0.4885 (Simulation time: 00 hr 54 min 15 sec)
Heartbeat CPU 0 instructions: 350000062 cycles: 379098815 heartbeat IPC: 0.2746 cumulative IPC: 0.4644 (Simulation time: 00 hr 59 min 29 sec)
Heartbeat CPU 0 instructions: 360000063 cycles: 396718311 heartbeat IPC: 0.5676 cumulative IPC: 0.4697 (Simulation time: 01 hr 01 min 56 sec)
Heartbeat CPU 0 instructions: 370000064 cycles: 413751844 heartbeat IPC: 0.5871 cumulative IPC: 0.4753 (Simulation time: 01 hr 04 min 14 sec)
Heartbeat CPU 0 instructions: 380000064 cycles: 431848807 heartbeat IPC: 0.5526 cumulative IPC: 0.4791 (Simulation time: 01 hr 06 min 41 sec)
Heartbeat CPU 0 instructions: 390000066 cycles: 450224463 heartbeat IPC: 0.5442 cumulative IPC: 0.4821 (Simulation time: 01 hr 09 min 08 sec)
Heartbeat CPU 0 instructions: 400000067 cycles: 467355386 heartbeat IPC: 0.5837 cumulative IPC: 0.4863 (Simulation time: 01 hr 11 min 27 sec)
Heartbeat CPU 0 instructions: 410000070 cycles: 494431589 heartbeat IPC: 0.3693 cumulative IPC: 0.4791 (Simulation time: 01 hr 15 min 32 sec)
Heartbeat CPU 0 instructions: 420000071 cycles: 525872247 heartbeat IPC: 0.3181 cumulative IPC: 0.4683 (Simulation time: 01 hr 20 min 22 sec)
Heartbeat CPU 0 instructions: 430000075 cycles: 565919715 heartbeat IPC: 0.2497 cumulative IPC: 0.4511 (Simulation time: 01 hr 26 min 13 sec)
Heartbeat CPU 0 instructions: 440000076 cycles: 607883313 heartbeat IPC: 0.2383 cumulative IPC: 0.435 (Simulation time: 01 hr 32 min 13 sec)
Heartbeat CPU 0 instructions: 450000079 cycles: 630367629 heartbeat IPC: 0.4448 cumulative IPC: 0.4353 (Simulation time: 01 hr 35 min 30 sec)
Heartbeat CPU 0 instructions: 460000083 cycles: 642322645 heartbeat IPC: 0.8365 cumulative IPC: 0.4435 (Simulation time: 01 hr 37 min 11 sec)
Heartbeat CPU 0 instructions: 470000086 cycles: 655923882 heartbeat IPC: 0.7352 cumulative IPC: 0.4501 (Simulation time: 01 hr 39 min 11 sec)
Heartbeat CPU 0 instructions: 480000090 cycles: 670296100 heartbeat IPC: 0.6958 cumulative IPC: 0.4559 (Simulation time: 01 hr 41 min 09 sec)
Heartbeat CPU 0 instructions: 490000091 cycles: 684721370 heartbeat IPC: 0.6932 cumulative IPC: 0.4613 (Simulation time: 01 hr 43 min 08 sec)
Heartbeat CPU 0 instructions: 500000092 cycles: 715063876 heartbeat IPC: 0.3296 cumulative IPC: 0.4553 (Simulation time: 01 hr 47 min 36 sec)
Heartbeat CPU 0 instructions: 510000093 cycles: 756739310 heartbeat IPC: 0.2399 cumulative IPC: 0.4425 (Simulation time: 01 hr 53 min 35 sec)
Heartbeat CPU 0 instructions: 520000096 cycles: 785571584 heartbeat IPC: 0.3468 cumulative IPC: 0.4387 (Simulation time: 01 hr 57 min 44 sec)
Heartbeat CPU 0 instructions: 530000100 cycles: 803962923 heartbeat IPC: 0.5437 cumulative IPC: 0.4413 (Simulation time: 02 hr 00 min 13 sec)
Heartbeat CPU 0 instructions: 540000103 cycles: 823741979 heartbeat IPC: 0.5056 cumulative IPC: 0.4429 (Simulation time: 02 hr 02 min 51 sec)
Heartbeat CPU 0 instructions: 550000105 cycles: 844796169 heartbeat IPC: 0.475 cumulative IPC: 0.4438 (Simulation time: 02 hr 05 min 38 sec)
Heartbeat CPU 0 instructions: 560000105 cycles: 865901903 heartbeat IPC: 0.4738 cumulative IPC: 0.4446 (Simulation time: 02 hr 08 min 26 sec)
Heartbeat CPU 0 instructions: 570000109 cycles: 904969278 heartbeat IPC: 0.256 cumulative IPC: 0.4359 (Simulation time: 02 hr 14 min 01 sec)
Heartbeat CPU 0 instructions: 580000112 cycles: 945386444 heartbeat IPC: 0.2474 cumulative IPC: 0.4273 (Simulation time: 02 hr 19 min 50 sec)
Heartbeat CPU 0 instructions: 590000112 cycles: 962966942 heartbeat IPC: 0.5688 cumulative IPC: 0.4301 (Simulation time: 02 hr 22 min 13 sec)
Heartbeat CPU 0 instructions: 600000113 cycles: 980344077 heartbeat IPC: 0.5755 cumulative IPC: 0.4328 (Simulation time: 02 hr 24 min 32 sec)
Heartbeat CPU 0 instructions: 610000113 cycles: 998870124 heartbeat IPC: 0.5398 cumulative IPC: 0.4349 (Simulation time: 02 hr 27 min 00 sec)
Heartbeat CPU 0 instructions: 620000114 cycles: 1017669669 heartbeat IPC: 0.5319 cumulative IPC: 0.4368 (Simulation time: 02 hr 29 min 30 sec)
Heartbeat CPU 0 instructions: 630000117 cycles: 1035241972 heartbeat IPC: 0.5691 cumulative IPC: 0.4392 (Simulation time: 02 hr 31 min 54 sec)
Heartbeat CPU 0 instructions: 640000119 cycles: 1063514520 heartbeat IPC: 0.3537 cumulative IPC: 0.4368 (Simulation time: 02 hr 36 min 20 sec)
Heartbeat CPU 0 instructions: 650000119 cycles: 1096077740 heartbeat IPC: 0.3071 cumulative IPC: 0.4327 (Simulation time: 02 hr 41 min 32 sec)
Heartbeat CPU 0 instructions: 660000120 cycles: 1137968357 heartbeat IPC: 0.2387 cumulative IPC: 0.4252 (Simulation time: 02 hr 47 min 58 sec)
Heartbeat CPU 0 instructions: 670000124 cycles: 1177937922 heartbeat IPC: 0.2502 cumulative IPC: 0.419 (Simulation time: 02 hr 53 min 50 sec)
Heartbeat CPU 0 instructions: 680000126 cycles: 1195169203 heartbeat IPC: 0.5803 cumulative IPC: 0.4214 (Simulation time: 02 hr 56 min 21 sec)
Heartbeat CPU 0 instructions: 690000126 cycles: 1207126590 heartbeat IPC: 0.8363 cumulative IPC: 0.4257 (Simulation time: 02 hr 58 min 04 sec)
Heartbeat CPU 0 instructions: 700000126 cycles: 1220997942 heartbeat IPC: 0.7209 cumulative IPC: 0.4292 (Simulation time: 03 hr 00 min 03 sec)
Heartbeat CPU 0 instructions: 710000130 cycles: 1235385212 heartbeat IPC: 0.6951 cumulative IPC: 0.4325 (Simulation time: 03 hr 02 min 04 sec)
Heartbeat CPU 0 instructions: 720000134 cycles: 1249778922 heartbeat IPC: 0.6947 cumulative IPC: 0.4356 (Simulation time: 03 hr 04 min 04 sec)
Heartbeat CPU 0 instructions: 730000137 cycles: 1286046608 heartbeat IPC: 0.2757 cumulative IPC: 0.4309 (Simulation time: 03 hr 09 min 35 sec)
Heartbeat CPU 0 instructions: 740000140 cycles: 1326517913 heartbeat IPC: 0.2471 cumulative IPC: 0.4251 (Simulation time: 03 hr 15 min 33 sec)
Heartbeat CPU 0 instructions: 750000142 cycles: 1352024329 heartbeat IPC: 0.3921 cumulative IPC: 0.4244 (Simulation time: 03 hr 19 min 15 sec)
Heartbeat CPU 0 instructions: 760000142 cycles: 1370103180 heartbeat IPC: 0.5531 cumulative IPC: 0.4262 (Simulation time: 03 hr 21 min 48 sec)
Heartbeat CPU 0 instructions: 770000145 cycles: 1389952703 heartbeat IPC: 0.5038 cumulative IPC: 0.4273 (Simulation time: 03 hr 24 min 33 sec)
Heartbeat CPU 0 instructions: 780000145 cycles: 1410787176 heartbeat IPC: 0.48 cumulative IPC: 0.4281 (Simulation time: 03 hr 27 min 27 sec)
Heartbeat CPU 0 instructions: 790000146 cycles: 1431750619 heartbeat IPC: 0.477 cumulative IPC: 0.4289 (Simulation time: 03 hr 30 min 25 sec)
Heartbeat CPU 0 instructions: 800000148 cycles: 1477232767 heartbeat IPC: 0.2199 cumulative IPC: 0.4222 (Simulation time: 03 hr 37 min 13 sec)
Heartbeat CPU 0 instructions: 810000150 cycles: 1511925988 heartbeat IPC: 0.2882 cumulative IPC: 0.419 (Simulation time: 03 hr 42 min 22 sec)
Heartbeat CPU 0 instructions: 820000150 cycles: 1528757945 heartbeat IPC: 0.5941 cumulative IPC: 0.421 (Simulation time: 03 hr 44 min 42 sec)
Heartbeat CPU 0 instructions: 830000152 cycles: 1546463063 heartbeat IPC: 0.5648 cumulative IPC: 0.4227 (Simulation time: 03 hr 47 min 09 sec)
Heartbeat CPU 0 instructions: 840000153 cycles: 1565096088 heartbeat IPC: 0.5367 cumulative IPC: 0.4241 (Simulation time: 03 hr 49 min 44 sec)
Heartbeat CPU 0 instructions: 850000155 cycles: 1583744647 heartbeat IPC: 0.5362 cumulative IPC: 0.4255 (Simulation time: 03 hr 52 min 19 sec)
Heartbeat CPU 0 instructions: 860000156 cycles: 1603762628 heartbeat IPC: 0.4996 cumulative IPC: 0.4265 (Simulation time: 03 hr 55 min 17 sec)
Heartbeat CPU 0 instructions: 870000159 cycles: 1631970568 heartbeat IPC: 0.3545 cumulative IPC: 0.4252 (Simulation time: 03 hr 59 min 56 sec)
Heartbeat CPU 0 instructions: 880000159 cycles: 1665694550 heartbeat IPC: 0.2965 cumulative IPC: 0.4225 (Simulation time: 04 hr 05 min 27 sec)
Heartbeat CPU 0 instructions: 890000163 cycles: 1707030289 heartbeat IPC: 0.2419 cumulative IPC: 0.4179 (Simulation time: 04 hr 11 min 44 sec)
Heartbeat CPU 0 instructions: 900000166 cycles: 1747008906 heartbeat IPC: 0.2501 cumulative IPC: 0.414 (Simulation time: 04 hr 17 min 36 sec)
Heartbeat CPU 0 instructions: 910000169 cycles: 1764186910 heartbeat IPC: 0.5821 cumulative IPC: 0.4157 (Simulation time: 04 hr 20 min 03 sec)
Heartbeat CPU 0 instructions: 920000170 cycles: 1776134129 heartbeat IPC: 0.837 cumulative IPC: 0.4186 (Simulation time: 04 hr 21 min 44 sec)
Heartbeat CPU 0 instructions: 930000170 cycles: 1790011150 heartbeat IPC: 0.7206 cumulative IPC: 0.421 (Simulation time: 04 hr 23 min 39 sec)
Heartbeat CPU 0 instructions: 940000174 cycles: 1804388774 heartbeat IPC: 0.6955 cumulative IPC: 0.4233 (Simulation time: 04 hr 25 min 37 sec)
Heartbeat CPU 0 instructions: 950000174 cycles: 1818796727 heartbeat IPC: 0.6941 cumulative IPC: 0.4255 (Simulation time: 04 hr 27 min 37 sec)
Heartbeat CPU 0 instructions: 960000174 cycles: 1855070894 heartbeat IPC: 0.2757 cumulative IPC: 0.4225 (Simulation time: 04 hr 33 min 00 sec)
Heartbeat CPU 0 instructions: 970000175 cycles: 1895493741 heartbeat IPC: 0.2474 cumulative IPC: 0.4186 (Simulation time: 04 hr 38 min 51 sec)
Heartbeat CPU 0 instructions: 980000175 cycles: 1920976779 heartbeat IPC: 0.3924 cumulative IPC: 0.4183 (Simulation time: 04 hr 42 min 27 sec)
Heartbeat CPU 0 instructions: 990000178 cycles: 1939071313 heartbeat IPC: 0.5527 cumulative IPC: 0.4196 (Simulation time: 04 hr 44 min 54 sec)
*** Reached end of trace: (0, "/scratch/user/sohilsheth21/ChampSim/leslie3d_1116B.trace.xz")
Heartbeat CPU 0 instructions: 1000000182 cycles: 1958968153 heartbeat IPC: 0.5026 cumulative IPC: 0.4204 (Simulation time: 04 hr 47 min 35 sec)
Heartbeat CPU 0 instructions: 1010000184 cycles: 1971027475 heartbeat IPC: 0.8292 cumulative IPC: 0.423 (Simulation time: 04 hr 49 min 17 sec)
Heartbeat CPU 0 instructions: 1020000184 cycles: 1985338850 heartbeat IPC: 0.6987 cumulative IPC: 0.425 (Simulation time: 04 hr 51 min 15 sec)
Heartbeat CPU 0 instructions: 1030000188 cycles: 1999759251 heartbeat IPC: 0.6935 cumulative IPC: 0.427 (Simulation time: 04 hr 53 min 14 sec)
Heartbeat CPU 0 instructions: 1040000188 cycles: 2023005488 heartbeat IPC: 0.4302 cumulative IPC: 0.4271 (Simulation time: 04 hr 56 min 35 sec)
Heartbeat CPU 0 instructions: 1050000188 cycles: 2064761991 heartbeat IPC: 0.2395 cumulative IPC: 0.4232 (Simulation time: 05 hr 02 min 45 sec)
Heartbeat CPU 0 instructions: 1060000192 cycles: 2098706079 heartbeat IPC: 0.2946 cumulative IPC: 0.421 (Simulation time: 05 hr 07 min 40 sec)
Heartbeat CPU 0 instructions: 1070000193 cycles: 2118727743 heartbeat IPC: 0.4995 cumulative IPC: 0.4218 (Simulation time: 05 hr 10 min 22 sec)
Heartbeat CPU 0 instructions: 1080000193 cycles: 2136805085 heartbeat IPC: 0.5532 cumulative IPC: 0.4229 (Simulation time: 05 hr 12 min 50 sec)
Heartbeat CPU 0 instructions: 1090000194 cycles: 2157769814 heartbeat IPC: 0.477 cumulative IPC: 0.4235 (Simulation time: 05 hr 15 min 40 sec)
Heartbeat CPU 0 instructions: 1100000197 cycles: 2178915757 heartbeat IPC: 0.4729 cumulative IPC: 0.424 (Simulation time: 05 hr 18 min 30 sec)
Heartbeat CPU 0 instructions: 1110000200 cycles: 2211919668 heartbeat IPC: 0.303 cumulative IPC: 0.4221 (Simulation time: 05 hr 23 min 11 sec)
Heartbeat CPU 0 instructions: 1120000201 cycles: 2254789986 heartbeat IPC: 0.2333 cumulative IPC: 0.4184 (Simulation time: 05 hr 29 min 20 sec)
Heartbeat CPU 0 instructions: 1130000205 cycles: 2277290610 heartbeat IPC: 0.4444 cumulative IPC: 0.4187 (Simulation time: 05 hr 32 min 35 sec)
Heartbeat CPU 0 instructions: 1140000209 cycles: 2294385987 heartbeat IPC: 0.585 cumulative IPC: 0.42 (Simulation time: 05 hr 34 min 53 sec)
Heartbeat CPU 0 instructions: 1150000211 cycles: 2312675844 heartbeat IPC: 0.5468 cumulative IPC: 0.421 (Simulation time: 05 hr 37 min 21 sec)
Heartbeat CPU 0 instructions: 1160000215 cycles: 2331448345 heartbeat IPC: 0.5327 cumulative IPC: 0.4219 (Simulation time: 05 hr 39 min 53 sec)
Heartbeat CPU 0 instructions: 1170000217 cycles: 2349296804 heartbeat IPC: 0.5603 cumulative IPC: 0.423 (Simulation time: 05 hr 42 min 18 sec)
Heartbeat CPU 0 instructions: 1180000221 cycles: 2374747605 heartbeat IPC: 0.3929 cumulative IPC: 0.4227 (Simulation time: 05 hr 46 min 05 sec)
Heartbeat CPU 0 instructions: 1190000223 cycles: 2403461502 heartbeat IPC: 0.3483 cumulative IPC: 0.4218 (Simulation time: 05 hr 50 min 28 sec)
Simulation finished CPU 0 instructions: 1000000002 cycles: 2390403900 cumulative IPC: 0.4183 (Simulation time: 05 hr 56 min 56 sec)
Simulation complete CPU 0 instructions: 1000000002 cycles: 2390403900 cumulative IPC: 0.4183 (Simulation time: 05 hr 56 min 56 sec)

ChampSim completed all CPUs

=== Simulation ===
CPU 0 runs /scratch/user/sohilsheth21/ChampSim/leslie3d_1116B.trace.xz

Region of Interest Statistics

CPU 0 cumulative IPC: 0.4183 instructions: 1000000002 cycles: 2390403900
CPU 0 Branch Prediction Accuracy: 98.28% MPKI: 0.899 Average ROB Occupancy at Mispredict: 282.4
Branch type MPKI
BRANCH_DIRECT_JUMP: 6.8e-05
BRANCH_INDIRECT: 1.3e-05
BRANCH_CONDITIONAL: 0.8987
BRANCH_DIRECT_CALL: 6.3e-05
BRANCH_INDIRECT_CALL: 3e-06
BRANCH_RETURN: 6.8e-05

cpu0->cpu0_STLB TOTAL        ACCESS:     859062 HIT:     453688 MISS:     405374 MSHR_MERGE:          0
cpu0->cpu0_STLB LOAD         ACCESS:     859062 HIT:     453688 MISS:     405374 MSHR_MERGE:          0
cpu0->cpu0_STLB RFO          ACCESS:          0 HIT:          0 MISS:          0 MSHR_MERGE:          0
cpu0->cpu0_STLB PREFETCH     ACCESS:          0 HIT:          0 MISS:          0 MSHR_MERGE:          0
cpu0->cpu0_STLB WRITE        ACCESS:          0 HIT:          0 MISS:          0 MSHR_MERGE:          0
cpu0->cpu0_STLB TRANSLATION  ACCESS:          0 HIT:          0 MISS:          0 MSHR_MERGE:          0
cpu0->cpu0_STLB PREFETCH REQUESTED:          0 ISSUED:          0 USEFUL:          0 USELESS:          0
cpu0->cpu0_STLB AVERAGE MISS LATENCY: 30.86 cycles
cpu0->cpu0_L2C TOTAL        ACCESS:   49046281 HIT:   20433199 MISS:   28613082 MSHR_MERGE:          0
cpu0->cpu0_L2C LOAD         ACCESS:   28419685 HIT:    6494882 MISS:   21924803 MSHR_MERGE:          0
cpu0->cpu0_L2C RFO          ACCESS:    8717249 HIT:    2055592 MISS:    6661657 MSHR_MERGE:          0
cpu0->cpu0_L2C PREFETCH     ACCESS:          0 HIT:          0 MISS:          0 MSHR_MERGE:          0
cpu0->cpu0_L2C WRITE        ACCESS:   11652331 HIT:   11646245 MISS:       6086 MSHR_MERGE:          0
cpu0->cpu0_L2C TRANSLATION  ACCESS:     257016 HIT:     236480 MISS:      20536 MSHR_MERGE:          0
cpu0->cpu0_L2C PREFETCH REQUESTED:          0 ISSUED:          0 USEFUL:          0 USELESS:          0
cpu0->cpu0_L2C AVERAGE MISS LATENCY: 251.5 cycles
cpu0->cpu0_L1I TOTAL        ACCESS:  169213910 HIT:  169202751 MISS:      11159 MSHR_MERGE:       4894
cpu0->cpu0_L1I LOAD         ACCESS:  169213910 HIT:  169202751 MISS:      11159 MSHR_MERGE:       4894
cpu0->cpu0_L1I RFO          ACCESS:          0 HIT:          0 MISS:          0 MSHR_MERGE:          0
cpu0->cpu0_L1I PREFETCH     ACCESS:          0 HIT:          0 MISS:          0 MSHR_MERGE:          0
cpu0->cpu0_L1I WRITE        ACCESS:          0 HIT:          0 MISS:          0 MSHR_MERGE:          0
cpu0->cpu0_L1I TRANSLATION  ACCESS:          0 HIT:          0 MISS:          0 MSHR_MERGE:          0
cpu0->cpu0_L1I PREFETCH REQUESTED:          0 ISSUED:          0 USEFUL:          0 USELESS:          0
cpu0->cpu0_L1I AVERAGE MISS LATENCY: 276.3 cycles
cpu0->cpu0_L1D TOTAL        ACCESS:  366955280 HIT:  253527872 MISS:  113427408 MSHR_MERGE:   76039006
cpu0->cpu0_L1D LOAD         ACCESS:  236905659 HIT:  174325000 MISS:   62580659 MSHR_MERGE:   34167162
cpu0->cpu0_L1D RFO          ACCESS:          0 HIT:          0 MISS:          0 MSHR_MERGE:          0
cpu0->cpu0_L1D PREFETCH     ACCESS:          0 HIT:          0 MISS:          0 MSHR_MERGE:          0
cpu0->cpu0_L1D WRITE        ACCESS:  129643694 HIT:   79054018 MISS:   50589676 MSHR_MERGE:   41871787
cpu0->cpu0_L1D TRANSLATION  ACCESS:     405927 HIT:     148854 MISS:     257073 MSHR_MERGE:         57
cpu0->cpu0_L1D PREFETCH REQUESTED:          0 ISSUED:          0 USEFUL:          0 USELESS:          0
cpu0->cpu0_L1D AVERAGE MISS LATENCY: 201.3 cycles
cpu0->cpu0_ITLB TOTAL        ACCESS:  140728736 HIT:  140728609 MISS:        127 MSHR_MERGE:         66
cpu0->cpu0_ITLB LOAD         ACCESS:  140728736 HIT:  140728609 MISS:        127 MSHR_MERGE:         66
cpu0->cpu0_ITLB RFO          ACCESS:          0 HIT:          0 MISS:          0 MSHR_MERGE:          0
cpu0->cpu0_ITLB PREFETCH     ACCESS:          0 HIT:          0 MISS:          0 MSHR_MERGE:          0
cpu0->cpu0_ITLB WRITE        ACCESS:          0 HIT:          0 MISS:          0 MSHR_MERGE:          0
cpu0->cpu0_ITLB TRANSLATION  ACCESS:          0 HIT:          0 MISS:          0 MSHR_MERGE:          0
cpu0->cpu0_ITLB PREFETCH REQUESTED:          0 ISSUED:          0 USEFUL:          0 USELESS:          0
cpu0->cpu0_ITLB AVERAGE MISS LATENCY: 319.9 cycles
cpu0->cpu0_DTLB TOTAL        ACCESS:  341920338 HIT:  340043406 MISS:    1876932 MSHR_MERGE:    1017931
cpu0->cpu0_DTLB LOAD         ACCESS:  341920338 HIT:  340043406 MISS:    1876932 MSHR_MERGE:    1017931
cpu0->cpu0_DTLB RFO          ACCESS:          0 HIT:          0 MISS:          0 MSHR_MERGE:          0
cpu0->cpu0_DTLB PREFETCH     ACCESS:          0 HIT:          0 MISS:          0 MSHR_MERGE:          0
cpu0->cpu0_DTLB WRITE        ACCESS:          0 HIT:          0 MISS:          0 MSHR_MERGE:          0
cpu0->cpu0_DTLB TRANSLATION  ACCESS:          0 HIT:          0 MISS:          0 MSHR_MERGE:          0
cpu0->cpu0_DTLB PREFETCH REQUESTED:          0 ISSUED:          0 USEFUL:          0 USELESS:          0
cpu0->cpu0_DTLB AVERAGE MISS LATENCY: 20.02 cycles
cpu0->LLC TOTAL        ACCESS:   36941228 HIT:    2251143 MISS:   34690085 MSHR_MERGE:          0
cpu0->LLC LOAD         ACCESS:   21924802 HIT:    1499179 MISS:   20425623 MSHR_MERGE:          0
cpu0->LLC RFO          ACCESS:    6661656 HIT:     355899 MISS:    6305757 MSHR_MERGE:          0
cpu0->LLC PREFETCH     ACCESS:          0 HIT:          0 MISS:          0 MSHR_MERGE:          0
cpu0->LLC WRITE        ACCESS:    8334234 HIT:     395884 MISS:    7938350 MSHR_MERGE:          0
cpu0->LLC TRANSLATION  ACCESS:      20536 HIT:        181 MISS:      20355 MSHR_MERGE:          0
cpu0->LLC PREFETCH REQUESTED:          0 ISSUED:          0 USEFUL:          0 USELESS:          0
cpu0->LLC AVERAGE MISS LATENCY: 196.4 cycles

DRAM Statistics

Channel 0 RQ ROW_BUFFER_HIT:     112080
  ROW_BUFFER_MISS:   26632340
  AVG DBUS CONGESTED CYCLE: 7.316
Channel 0 WQ ROW_BUFFER_HIT:    2745009
  ROW_BUFFER_MISS:    5227931
  FULL:        955
Channel 0 REFRESHES ISSUED:     199200
