[VMEM] WARNING: physical memory size is smaller than virtual memory size.
WARNING: option --warmup_instructions is deprecated. Use --warmup-instructions instead.
WARNING: option --simulation_instructions is deprecated. Use --simulation-instructions instead.

*** ChampSim Multicore Out-of-Order Simulator ***
Warmup Instructions: 200000000
Simulation Instructions: 1000000000
Number of CPUs: 1
Page size: 4096

Off-chip DRAM Size: 16 GiB Channels: 1 Width: 64-bit Data Rate: 3205 MT/s
Heartbeat CPU 0 instructions: 10000002 cycles: 2792592 heartbeat IPC: 3.581 cumulative IPC: 3.581 (Simulation time: 00 hr 01 min 00 sec)
Heartbeat CPU 0 instructions: 20000004 cycles: 5644686 heartbeat IPC: 3.506 cumulative IPC: 3.543 (Simulation time: 00 hr 02 min 01 sec)
Heartbeat CPU 0 instructions: 30000007 cycles: 8497451 heartbeat IPC: 3.505 cumulative IPC: 3.53 (Simulation time: 00 hr 03 min 03 sec)
Heartbeat CPU 0 instructions: 40000010 cycles: 11353674 heartbeat IPC: 3.501 cumulative IPC: 3.523 (Simulation time: 00 hr 04 min 04 sec)
Heartbeat CPU 0 instructions: 50000010 cycles: 14193364 heartbeat IPC: 3.522 cumulative IPC: 3.523 (Simulation time: 00 hr 05 min 04 sec)
Heartbeat CPU 0 instructions: 60000013 cycles: 17004827 heartbeat IPC: 3.557 cumulative IPC: 3.528 (Simulation time: 00 hr 06 min 05 sec)
Heartbeat CPU 0 instructions: 70000013 cycles: 19901499 heartbeat IPC: 3.452 cumulative IPC: 3.517 (Simulation time: 00 hr 07 min 08 sec)
Heartbeat CPU 0 instructions: 80000015 cycles: 22802623 heartbeat IPC: 3.447 cumulative IPC: 3.508 (Simulation time: 00 hr 08 min 10 sec)
Heartbeat CPU 0 instructions: 90000016 cycles: 25582664 heartbeat IPC: 3.597 cumulative IPC: 3.518 (Simulation time: 00 hr 09 min 09 sec)
Heartbeat CPU 0 instructions: 100000018 cycles: 28400098 heartbeat IPC: 3.549 cumulative IPC: 3.521 (Simulation time: 00 hr 10 min 09 sec)
Heartbeat CPU 0 instructions: 110000018 cycles: 31287388 heartbeat IPC: 3.463 cumulative IPC: 3.516 (Simulation time: 00 hr 11 min 10 sec)
Heartbeat CPU 0 instructions: 120000018 cycles: 34186631 heartbeat IPC: 3.449 cumulative IPC: 3.51 (Simulation time: 00 hr 12 min 10 sec)
Heartbeat CPU 0 instructions: 130000021 cycles: 36988512 heartbeat IPC: 3.569 cumulative IPC: 3.515 (Simulation time: 00 hr 13 min 09 sec)
Heartbeat CPU 0 instructions: 140000025 cycles: 39780213 heartbeat IPC: 3.582 cumulative IPC: 3.519 (Simulation time: 00 hr 14 min 09 sec)
Heartbeat CPU 0 instructions: 150000025 cycles: 42612978 heartbeat IPC: 3.53 cumulative IPC: 3.52 (Simulation time: 00 hr 15 min 09 sec)
Heartbeat CPU 0 instructions: 160000029 cycles: 45507298 heartbeat IPC: 3.455 cumulative IPC: 3.516 (Simulation time: 00 hr 16 min 11 sec)
Heartbeat CPU 0 instructions: 170000032 cycles: 48336958 heartbeat IPC: 3.534 cumulative IPC: 3.517 (Simulation time: 00 hr 17 min 11 sec)
Heartbeat CPU 0 instructions: 180000035 cycles: 51197370 heartbeat IPC: 3.496 cumulative IPC: 3.516 (Simulation time: 00 hr 18 min 14 sec)
Heartbeat CPU 0 instructions: 190000037 cycles: 54090458 heartbeat IPC: 3.457 cumulative IPC: 3.513 (Simulation time: 00 hr 19 min 16 sec)
Warmup finished CPU 0 instructions: 200000001 cycles: 56918180 cumulative IPC: 3.514 (Simulation time: 00 hr 20 min 16 sec)
Warmup complete CPU 0 instructions: 200000001 cycles: 56918180 cumulative IPC: 3.514 (Simulation time: 00 hr 20 min 16 sec)
Heartbeat CPU 0 instructions: 200000041 cycles: 56918191 heartbeat IPC: 3.536 cumulative IPC: 3.636 (Simulation time: 00 hr 20 min 16 sec)
Heartbeat CPU 0 instructions: 210000042 cycles: 61278134 heartbeat IPC: 2.294 cumulative IPC: 2.294 (Simulation time: 00 hr 21 min 19 sec)
Heartbeat CPU 0 instructions: 220000042 cycles: 65682512 heartbeat IPC: 2.27 cumulative IPC: 2.282 (Simulation time: 00 hr 22 min 24 sec)
Heartbeat CPU 0 instructions: 230000042 cycles: 69935931 heartbeat IPC: 2.351 cumulative IPC: 2.305 (Simulation time: 00 hr 23 min 28 sec)
Heartbeat CPU 0 instructions: 240000044 cycles: 74287030 heartbeat IPC: 2.298 cumulative IPC: 2.303 (Simulation time: 00 hr 24 min 32 sec)
Heartbeat CPU 0 instructions: 250000048 cycles: 78651685 heartbeat IPC: 2.291 cumulative IPC: 2.301 (Simulation time: 00 hr 25 min 38 sec)
Heartbeat CPU 0 instructions: 260000048 cycles: 82957136 heartbeat IPC: 2.323 cumulative IPC: 2.304 (Simulation time: 00 hr 26 min 39 sec)
Heartbeat CPU 0 instructions: 270000051 cycles: 87200823 heartbeat IPC: 2.356 cumulative IPC: 2.312 (Simulation time: 00 hr 27 min 41 sec)
Heartbeat CPU 0 instructions: 280000051 cycles: 91399595 heartbeat IPC: 2.382 cumulative IPC: 2.32 (Simulation time: 00 hr 28 min 41 sec)
Heartbeat CPU 0 instructions: 290000054 cycles: 95670651 heartbeat IPC: 2.341 cumulative IPC: 2.322 (Simulation time: 00 hr 29 min 43 sec)
Heartbeat CPU 0 instructions: 300000056 cycles: 100131886 heartbeat IPC: 2.242 cumulative IPC: 2.314 (Simulation time: 00 hr 30 min 47 sec)
Heartbeat CPU 0 instructions: 310000060 cycles: 104624517 heartbeat IPC: 2.226 cumulative IPC: 2.306 (Simulation time: 00 hr 31 min 50 sec)
Heartbeat CPU 0 instructions: 320000063 cycles: 108983566 heartbeat IPC: 2.294 cumulative IPC: 2.305 (Simulation time: 00 hr 32 min 52 sec)
Heartbeat CPU 0 instructions: 330000064 cycles: 113411448 heartbeat IPC: 2.258 cumulative IPC: 2.301 (Simulation time: 00 hr 33 min 58 sec)
Heartbeat CPU 0 instructions: 340000065 cycles: 117818124 heartbeat IPC: 2.269 cumulative IPC: 2.299 (Simulation time: 00 hr 35 min 03 sec)
Heartbeat CPU 0 instructions: 350000066 cycles: 122222308 heartbeat IPC: 2.271 cumulative IPC: 2.297 (Simulation time: 00 hr 36 min 05 sec)
Heartbeat CPU 0 instructions: 360000066 cycles: 126709898 heartbeat IPC: 2.228 cumulative IPC: 2.293 (Simulation time: 00 hr 37 min 08 sec)
Heartbeat CPU 0 instructions: 370000069 cycles: 130899665 heartbeat IPC: 2.387 cumulative IPC: 2.298 (Simulation time: 00 hr 38 min 11 sec)
Heartbeat CPU 0 instructions: 380000069 cycles: 135166040 heartbeat IPC: 2.344 cumulative IPC: 2.3 (Simulation time: 00 hr 39 min 15 sec)
Heartbeat CPU 0 instructions: 390000073 cycles: 139546047 heartbeat IPC: 2.283 cumulative IPC: 2.299 (Simulation time: 00 hr 40 min 16 sec)
Heartbeat CPU 0 instructions: 400000073 cycles: 143862367 heartbeat IPC: 2.317 cumulative IPC: 2.3 (Simulation time: 00 hr 41 min 17 sec)
Heartbeat CPU 0 instructions: 410000074 cycles: 148095822 heartbeat IPC: 2.362 cumulative IPC: 2.303 (Simulation time: 00 hr 42 min 20 sec)
Heartbeat CPU 0 instructions: 420000077 cycles: 152332616 heartbeat IPC: 2.36 cumulative IPC: 2.306 (Simulation time: 00 hr 43 min 21 sec)
Heartbeat CPU 0 instructions: 430000079 cycles: 156676769 heartbeat IPC: 2.302 cumulative IPC: 2.306 (Simulation time: 00 hr 44 min 21 sec)
Heartbeat CPU 0 instructions: 440000083 cycles: 161157919 heartbeat IPC: 2.232 cumulative IPC: 2.302 (Simulation time: 00 hr 45 min 24 sec)
Heartbeat CPU 0 instructions: 450000086 cycles: 165465050 heartbeat IPC: 2.322 cumulative IPC: 2.303 (Simulation time: 00 hr 46 min 26 sec)
Heartbeat CPU 0 instructions: 460000090 cycles: 169957665 heartbeat IPC: 2.226 cumulative IPC: 2.3 (Simulation time: 00 hr 47 min 30 sec)
Heartbeat CPU 0 instructions: 470000090 cycles: 177175505 heartbeat IPC: 1.385 cumulative IPC: 2.245 (Simulation time: 00 hr 48 min 52 sec)
Heartbeat CPU 0 instructions: 480000093 cycles: 183748112 heartbeat IPC: 1.521 cumulative IPC: 2.208 (Simulation time: 00 hr 50 min 09 sec)
Heartbeat CPU 0 instructions: 490000094 cycles: 188959994 heartbeat IPC: 1.919 cumulative IPC: 2.196 (Simulation time: 00 hr 51 min 18 sec)
Heartbeat CPU 0 instructions: 500000095 cycles: 194327710 heartbeat IPC: 1.863 cumulative IPC: 2.183 (Simulation time: 00 hr 52 min 28 sec)
Heartbeat CPU 0 instructions: 510000097 cycles: 203139612 heartbeat IPC: 1.135 cumulative IPC: 2.12 (Simulation time: 00 hr 54 min 00 sec)
Heartbeat CPU 0 instructions: 520000097 cycles: 214900536 heartbeat IPC: 0.8503 cumulative IPC: 2.026 (Simulation time: 00 hr 55 min 56 sec)
Heartbeat CPU 0 instructions: 530000101 cycles: 224278810 heartbeat IPC: 1.066 cumulative IPC: 1.972 (Simulation time: 00 hr 57 min 35 sec)
Heartbeat CPU 0 instructions: 540000102 cycles: 233976183 heartbeat IPC: 1.031 cumulative IPC: 1.92 (Simulation time: 00 hr 59 min 16 sec)
Heartbeat CPU 0 instructions: 550000102 cycles: 246159148 heartbeat IPC: 0.8208 cumulative IPC: 1.849 (Simulation time: 01 hr 01 min 10 sec)
Heartbeat CPU 0 instructions: 560000103 cycles: 251346610 heartbeat IPC: 1.928 cumulative IPC: 1.852 (Simulation time: 01 hr 02 min 17 sec)
Heartbeat CPU 0 instructions: 570000103 cycles: 256170380 heartbeat IPC: 2.073 cumulative IPC: 1.857 (Simulation time: 01 hr 03 min 21 sec)
Heartbeat CPU 0 instructions: 580000104 cycles: 260953359 heartbeat IPC: 2.091 cumulative IPC: 1.862 (Simulation time: 01 hr 04 min 27 sec)
Heartbeat CPU 0 instructions: 590000105 cycles: 265746831 heartbeat IPC: 2.086 cumulative IPC: 1.868 (Simulation time: 01 hr 05 min 32 sec)
Heartbeat CPU 0 instructions: 600000108 cycles: 274161359 heartbeat IPC: 1.188 cumulative IPC: 1.841 (Simulation time: 01 hr 07 min 02 sec)
Heartbeat CPU 0 instructions: 610000108 cycles: 285748356 heartbeat IPC: 0.863 cumulative IPC: 1.792 (Simulation time: 01 hr 08 min 54 sec)
Heartbeat CPU 0 instructions: 620000112 cycles: 297649602 heartbeat IPC: 0.8402 cumulative IPC: 1.745 (Simulation time: 01 hr 10 min 46 sec)
Heartbeat CPU 0 instructions: 630000114 cycles: 305711028 heartbeat IPC: 1.24 cumulative IPC: 1.728 (Simulation time: 01 hr 12 min 12 sec)
Heartbeat CPU 0 instructions: 640000114 cycles: 313594010 heartbeat IPC: 1.269 cumulative IPC: 1.714 (Simulation time: 01 hr 13 min 38 sec)
Heartbeat CPU 0 instructions: 650000114 cycles: 325662876 heartbeat IPC: 0.8286 cumulative IPC: 1.674 (Simulation time: 01 hr 15 min 31 sec)
Heartbeat CPU 0 instructions: 660000115 cycles: 337737828 heartbeat IPC: 0.8282 cumulative IPC: 1.638 (Simulation time: 01 hr 17 min 17 sec)
Heartbeat CPU 0 instructions: 670000116 cycles: 343393198 heartbeat IPC: 1.768 cumulative IPC: 1.641 (Simulation time: 01 hr 18 min 25 sec)
Heartbeat CPU 0 instructions: 680000116 cycles: 356385023 heartbeat IPC: 0.7697 cumulative IPC: 1.603 (Simulation time: 01 hr 20 min 17 sec)
Heartbeat CPU 0 instructions: 690000116 cycles: 368885170 heartbeat IPC: 0.8 cumulative IPC: 1.571 (Simulation time: 01 hr 22 min 05 sec)
Heartbeat CPU 0 instructions: 700000117 cycles: 373296627 heartbeat IPC: 2.267 cumulative IPC: 1.58 (Simulation time: 01 hr 23 min 03 sec)
Heartbeat CPU 0 instructions: 710000120 cycles: 377809422 heartbeat IPC: 2.216 cumulative IPC: 1.589 (Simulation time: 01 hr 24 min 01 sec)
Heartbeat CPU 0 instructions: 720000120 cycles: 382367992 heartbeat IPC: 2.194 cumulative IPC: 1.598 (Simulation time: 01 hr 24 min 57 sec)
Heartbeat CPU 0 instructions: 730000122 cycles: 386667168 heartbeat IPC: 2.326 cumulative IPC: 1.607 (Simulation time: 01 hr 25 min 52 sec)
Heartbeat CPU 0 instructions: 740000124 cycles: 391141241 heartbeat IPC: 2.235 cumulative IPC: 1.616 (Simulation time: 01 hr 26 min 50 sec)
Heartbeat CPU 0 instructions: 750000124 cycles: 395652126 heartbeat IPC: 2.217 cumulative IPC: 1.624 (Simulation time: 01 hr 27 min 49 sec)
Heartbeat CPU 0 instructions: 760000125 cycles: 400218880 heartbeat IPC: 2.19 cumulative IPC: 1.631 (Simulation time: 01 hr 28 min 48 sec)
Heartbeat CPU 0 instructions: 770000125 cycles: 404671532 heartbeat IPC: 2.246 cumulative IPC: 1.639 (Simulation time: 01 hr 29 min 48 sec)
Heartbeat CPU 0 instructions: 780000127 cycles: 409091728 heartbeat IPC: 2.262 cumulative IPC: 1.647 (Simulation time: 01 hr 30 min 47 sec)
Heartbeat CPU 0 instructions: 790000127 cycles: 413646515 heartbeat IPC: 2.195 cumulative IPC: 1.654 (Simulation time: 01 hr 31 min 47 sec)
Heartbeat CPU 0 instructions: 800000128 cycles: 418084901 heartbeat IPC: 2.253 cumulative IPC: 1.661 (Simulation time: 01 hr 32 min 46 sec)
Heartbeat CPU 0 instructions: 810000129 cycles: 422719523 heartbeat IPC: 2.158 cumulative IPC: 1.668 (Simulation time: 01 hr 33 min 47 sec)
Heartbeat CPU 0 instructions: 820000132 cycles: 427376484 heartbeat IPC: 2.147 cumulative IPC: 1.674 (Simulation time: 01 hr 34 min 47 sec)
Heartbeat CPU 0 instructions: 830000133 cycles: 432003811 heartbeat IPC: 2.161 cumulative IPC: 1.68 (Simulation time: 01 hr 35 min 46 sec)
Heartbeat CPU 0 instructions: 840000137 cycles: 436559283 heartbeat IPC: 2.195 cumulative IPC: 1.686 (Simulation time: 01 hr 36 min 45 sec)
Heartbeat CPU 0 instructions: 850000138 cycles: 441233814 heartbeat IPC: 2.139 cumulative IPC: 1.691 (Simulation time: 01 hr 37 min 46 sec)
Heartbeat CPU 0 instructions: 860000141 cycles: 445873451 heartbeat IPC: 2.155 cumulative IPC: 1.697 (Simulation time: 01 hr 38 min 46 sec)
Heartbeat CPU 0 instructions: 870000141 cycles: 450488606 heartbeat IPC: 2.167 cumulative IPC: 1.702 (Simulation time: 01 hr 39 min 42 sec)
Heartbeat CPU 0 instructions: 880000144 cycles: 455004044 heartbeat IPC: 2.215 cumulative IPC: 1.708 (Simulation time: 01 hr 40 min 38 sec)
Heartbeat CPU 0 instructions: 890000145 cycles: 459477135 heartbeat IPC: 2.236 cumulative IPC: 1.714 (Simulation time: 01 hr 41 min 35 sec)
Heartbeat CPU 0 instructions: 900000145 cycles: 463877522 heartbeat IPC: 2.273 cumulative IPC: 1.72 (Simulation time: 01 hr 42 min 32 sec)
Heartbeat CPU 0 instructions: 910000145 cycles: 468431499 heartbeat IPC: 2.196 cumulative IPC: 1.725 (Simulation time: 01 hr 43 min 31 sec)
Heartbeat CPU 0 instructions: 920000145 cycles: 472941473 heartbeat IPC: 2.217 cumulative IPC: 1.731 (Simulation time: 01 hr 44 min 27 sec)
Heartbeat CPU 0 instructions: 930000147 cycles: 477459978 heartbeat IPC: 2.213 cumulative IPC: 1.736 (Simulation time: 01 hr 45 min 26 sec)
Heartbeat CPU 0 instructions: 940000148 cycles: 482015513 heartbeat IPC: 2.195 cumulative IPC: 1.741 (Simulation time: 01 hr 46 min 27 sec)
Heartbeat CPU 0 instructions: 950000148 cycles: 486446809 heartbeat IPC: 2.257 cumulative IPC: 1.746 (Simulation time: 01 hr 47 min 27 sec)
Heartbeat CPU 0 instructions: 960000148 cycles: 490850273 heartbeat IPC: 2.271 cumulative IPC: 1.751 (Simulation time: 01 hr 48 min 25 sec)
Heartbeat CPU 0 instructions: 970000149 cycles: 495248302 heartbeat IPC: 2.274 cumulative IPC: 1.757 (Simulation time: 01 hr 49 min 22 sec)
Heartbeat CPU 0 instructions: 980000150 cycles: 499903885 heartbeat IPC: 2.148 cumulative IPC: 1.761 (Simulation time: 01 hr 50 min 23 sec)
Heartbeat CPU 0 instructions: 990000153 cycles: 504227884 heartbeat IPC: 2.313 cumulative IPC: 1.766 (Simulation time: 01 hr 51 min 20 sec)
Heartbeat CPU 0 instructions: 1000000153 cycles: 508782467 heartbeat IPC: 2.196 cumulative IPC: 1.77 (Simulation time: 01 hr 52 min 21 sec)
Heartbeat CPU 0 instructions: 1010000154 cycles: 513235328 heartbeat IPC: 2.246 cumulative IPC: 1.775 (Simulation time: 01 hr 53 min 21 sec)
Heartbeat CPU 0 instructions: 1020000158 cycles: 517627412 heartbeat IPC: 2.277 cumulative IPC: 1.78 (Simulation time: 01 hr 54 min 19 sec)
Heartbeat CPU 0 instructions: 1030000161 cycles: 522084193 heartbeat IPC: 2.244 cumulative IPC: 1.784 (Simulation time: 01 hr 55 min 15 sec)
Heartbeat CPU 0 instructions: 1040000161 cycles: 526477896 heartbeat IPC: 2.276 cumulative IPC: 1.789 (Simulation time: 01 hr 56 min 10 sec)
Heartbeat CPU 0 instructions: 1050000161 cycles: 530854161 heartbeat IPC: 2.285 cumulative IPC: 1.793 (Simulation time: 01 hr 57 min 05 sec)
Heartbeat CPU 0 instructions: 1060000162 cycles: 535322325 heartbeat IPC: 2.238 cumulative IPC: 1.798 (Simulation time: 01 hr 58 min 02 sec)
Heartbeat CPU 0 instructions: 1070000164 cycles: 539772935 heartbeat IPC: 2.247 cumulative IPC: 1.802 (Simulation time: 01 hr 58 min 57 sec)
Heartbeat CPU 0 instructions: 1080000164 cycles: 544170526 heartbeat IPC: 2.274 cumulative IPC: 1.806 (Simulation time: 01 hr 59 min 53 sec)
Heartbeat CPU 0 instructions: 1090000168 cycles: 548895343 heartbeat IPC: 2.116 cumulative IPC: 1.809 (Simulation time: 02 hr 00 min 52 sec)
Heartbeat CPU 0 instructions: 1100000168 cycles: 553474386 heartbeat IPC: 2.184 cumulative IPC: 1.812 (Simulation time: 02 hr 01 min 48 sec)
Heartbeat CPU 0 instructions: 1110000169 cycles: 557998584 heartbeat IPC: 2.21 cumulative IPC: 1.816 (Simulation time: 02 hr 02 min 45 sec)
Heartbeat CPU 0 instructions: 1120000171 cycles: 562354548 heartbeat IPC: 2.296 cumulative IPC: 1.82 (Simulation time: 02 hr 03 min 40 sec)
Heartbeat CPU 0 instructions: 1130000175 cycles: 566753067 heartbeat IPC: 2.273 cumulative IPC: 1.824 (Simulation time: 02 hr 04 min 39 sec)
Heartbeat CPU 0 instructions: 1140000178 cycles: 571264900 heartbeat IPC: 2.216 cumulative IPC: 1.828 (Simulation time: 02 hr 05 min 35 sec)
Heartbeat CPU 0 instructions: 1150000180 cycles: 575676699 heartbeat IPC: 2.267 cumulative IPC: 1.831 (Simulation time: 02 hr 06 min 31 sec)
Heartbeat CPU 0 instructions: 1160000184 cycles: 580036312 heartbeat IPC: 2.294 cumulative IPC: 1.835 (Simulation time: 02 hr 07 min 26 sec)
Heartbeat CPU 0 instructions: 1170000187 cycles: 584383918 heartbeat IPC: 2.3 cumulative IPC: 1.839 (Simulation time: 02 hr 08 min 23 sec)
Heartbeat CPU 0 instructions: 1180000188 cycles: 588892634 heartbeat IPC: 2.218 cumulative IPC: 1.842 (Simulation time: 02 hr 09 min 19 sec)
Heartbeat CPU 0 instructions: 1190000189 cycles: 593400441 heartbeat IPC: 2.218 cumulative IPC: 1.845 (Simulation time: 02 hr 10 min 18 sec)
Simulation finished CPU 0 instructions: 1000000002 cycles: 541062786 cumulative IPC: 1.848 (Simulation time: 02 hr 11 min 17 sec)
Simulation complete CPU 0 instructions: 1000000002 cycles: 541062786 cumulative IPC: 1.848 (Simulation time: 02 hr 11 min 17 sec)

ChampSim completed all CPUs

=== Simulation ===
CPU 0 runs /home/faculty/p/pgratz/dpc3_traces/600.perlbench_s-210B.champsimtrace.xz

Region of Interest Statistics

CPU 0 cumulative IPC: 1.848 instructions: 1000000002 cycles: 541062786
CPU 0 Branch Prediction Accuracy: 96.72% MPKI: 4.872 Average ROB Occupancy at Mispredict: 89.24
Branch type MPKI
BRANCH_DIRECT_JUMP: 0.04858
BRANCH_INDIRECT: 0.3106
BRANCH_CONDITIONAL: 4.353
BRANCH_DIRECT_CALL: 0.01168
BRANCH_INDIRECT_CALL: 0.1355
BRANCH_RETURN: 0.01204

cpu0->cpu0_STLB TOTAL        ACCESS:    1177950 HIT:    1144684 MISS:      33266 MSHR_MERGE:          0
cpu0->cpu0_STLB LOAD         ACCESS:    1177950 HIT:    1144684 MISS:      33266 MSHR_MERGE:          0
cpu0->cpu0_STLB RFO          ACCESS:          0 HIT:          0 MISS:          0 MSHR_MERGE:          0
cpu0->cpu0_STLB PREFETCH     ACCESS:          0 HIT:          0 MISS:          0 MSHR_MERGE:          0
cpu0->cpu0_STLB WRITE        ACCESS:          0 HIT:          0 MISS:          0 MSHR_MERGE:          0
cpu0->cpu0_STLB TRANSLATION  ACCESS:          0 HIT:          0 MISS:          0 MSHR_MERGE:          0
cpu0->cpu0_STLB PREFETCH REQUESTED:          0 ISSUED:          0 USEFUL:          0 USELESS:          0
cpu0->cpu0_STLB AVERAGE MISS LATENCY: 184.3 cycles
cpu0->cpu0_L2C TOTAL        ACCESS:    3029812 HIT:    2558854 MISS:     470958 MSHR_MERGE:          0
cpu0->cpu0_L2C LOAD         ACCESS:    2636389 HIT:    2219618 MISS:     416771 MSHR_MERGE:          0
cpu0->cpu0_L2C RFO          ACCESS:      85655 HIT:      56772 MISS:      28883 MSHR_MERGE:          0
cpu0->cpu0_L2C PREFETCH     ACCESS:          0 HIT:          0 MISS:          0 MSHR_MERGE:          0
cpu0->cpu0_L2C WRITE        ACCESS:     273303 HIT:     272084 MISS:       1219 MSHR_MERGE:          0
cpu0->cpu0_L2C TRANSLATION  ACCESS:      34465 HIT:      10380 MISS:      24085 MSHR_MERGE:          0
cpu0->cpu0_L2C PREFETCH REQUESTED:          0 ISSUED:          0 USEFUL:          0 USELESS:          0
cpu0->cpu0_L2C AVERAGE MISS LATENCY: 138.2 cycles
cpu0->cpu0_L1I TOTAL        ACCESS:   60216686 HIT:   58106336 MISS:    2110350 MSHR_MERGE:     461242
cpu0->cpu0_L1I LOAD         ACCESS:   60216686 HIT:   58106336 MISS:    2110350 MSHR_MERGE:     461242
cpu0->cpu0_L1I RFO          ACCESS:          0 HIT:          0 MISS:          0 MSHR_MERGE:          0
cpu0->cpu0_L1I PREFETCH     ACCESS:          0 HIT:          0 MISS:          0 MSHR_MERGE:          0
cpu0->cpu0_L1I WRITE        ACCESS:          0 HIT:          0 MISS:          0 MSHR_MERGE:          0
cpu0->cpu0_L1I TRANSLATION  ACCESS:          0 HIT:          0 MISS:          0 MSHR_MERGE:          0
cpu0->cpu0_L1I PREFETCH REQUESTED:          0 ISSUED:          0 USEFUL:          0 USELESS:          0
cpu0->cpu0_L1I AVERAGE MISS LATENCY: 10.78 cycles
cpu0->cpu0_L1D TOTAL        ACCESS:  327740554 HIT:  326172587 MISS:    1567967 MSHR_MERGE:     460561
cpu0->cpu0_L1D LOAD         ACCESS:  135555434 HIT:  134278653 MISS:    1276781 MSHR_MERGE:     289499
cpu0->cpu0_L1D RFO          ACCESS:          0 HIT:          0 MISS:          0 MSHR_MERGE:          0
cpu0->cpu0_L1D PREFETCH     ACCESS:          0 HIT:          0 MISS:          0 MSHR_MERGE:          0
cpu0->cpu0_L1D WRITE        ACCESS:  192147336 HIT:  191890624 MISS:     256712 MSHR_MERGE:     171053
cpu0->cpu0_L1D TRANSLATION  ACCESS:      37784 HIT:       3310 MISS:      34474 MSHR_MERGE:          9
cpu0->cpu0_L1D PREFETCH REQUESTED:          0 ISSUED:          0 USEFUL:          0 USELESS:          0
cpu0->cpu0_L1D AVERAGE MISS LATENCY: 61.78 cycles
cpu0->cpu0_ITLB TOTAL        ACCESS:   52130358 HIT:   51823056 MISS:     307302 MSHR_MERGE:     188663
cpu0->cpu0_ITLB LOAD         ACCESS:   52130358 HIT:   51823056 MISS:     307302 MSHR_MERGE:     188663
cpu0->cpu0_ITLB RFO          ACCESS:          0 HIT:          0 MISS:          0 MSHR_MERGE:          0
cpu0->cpu0_ITLB PREFETCH     ACCESS:          0 HIT:          0 MISS:          0 MSHR_MERGE:          0
cpu0->cpu0_ITLB WRITE        ACCESS:          0 HIT:          0 MISS:          0 MSHR_MERGE:          0
cpu0->cpu0_ITLB TRANSLATION  ACCESS:          0 HIT:          0 MISS:          0 MSHR_MERGE:          0
cpu0->cpu0_ITLB PREFETCH REQUESTED:          0 ISSUED:          0 USEFUL:          0 USELESS:          0
cpu0->cpu0_ITLB AVERAGE MISS LATENCY: 7.09 cycles
cpu0->cpu0_DTLB TOTAL        ACCESS:  295132970 HIT:  293771892 MISS:    1361078 MSHR_MERGE:     301767
cpu0->cpu0_DTLB LOAD         ACCESS:  295132970 HIT:  293771892 MISS:    1361078 MSHR_MERGE:     301767
cpu0->cpu0_DTLB RFO          ACCESS:          0 HIT:          0 MISS:          0 MSHR_MERGE:          0
cpu0->cpu0_DTLB PREFETCH     ACCESS:          0 HIT:          0 MISS:          0 MSHR_MERGE:          0
cpu0->cpu0_DTLB WRITE        ACCESS:          0 HIT:          0 MISS:          0 MSHR_MERGE:          0
cpu0->cpu0_DTLB TRANSLATION  ACCESS:          0 HIT:          0 MISS:          0 MSHR_MERGE:          0
cpu0->cpu0_DTLB PREFETCH REQUESTED:          0 ISSUED:          0 USEFUL:          0 USELESS:          0
cpu0->cpu0_DTLB AVERAGE MISS LATENCY: 10.59 cycles
cpu0->LLC TOTAL        ACCESS:     563889 HIT:     174711 MISS:     389178 MSHR_MERGE:          0
cpu0->LLC LOAD         ACCESS:     416771 HIT:     137709 MISS:     279062 MSHR_MERGE:          0
cpu0->LLC RFO          ACCESS:      28883 HIT:       7124 MISS:      21759 MSHR_MERGE:          0
cpu0->LLC PREFETCH     ACCESS:          0 HIT:          0 MISS:          0 MSHR_MERGE:          0
cpu0->LLC WRITE        ACCESS:      94150 HIT:      27729 MISS:      66421 MSHR_MERGE:          0
cpu0->LLC TRANSLATION  ACCESS:      24085 HIT:       2149 MISS:      21936 MSHR_MERGE:          0
cpu0->LLC PREFETCH REQUESTED:          0 ISSUED:          0 USEFUL:          0 USELESS:          0
cpu0->LLC AVERAGE MISS LATENCY: 149.8 cycles

DRAM Statistics

Channel 0 RQ ROW_BUFFER_HIT:       4792
  ROW_BUFFER_MISS:     317951
  AVG DBUS CONGESTED CYCLE: 20.71
Channel 0 WQ ROW_BUFFER_HIT:      21170
  ROW_BUFFER_MISS:      46683
  FULL:          0
Channel 0 REFRESHES ISSUED:      45088
