[VMEM] WARNING: physical memory size is smaller than virtual memory size.
WARNING: option --warmup_instructions is deprecated. Use --warmup-instructions instead.
WARNING: option --simulation_instructions is deprecated. Use --simulation-instructions instead.

*** ChampSim Multicore Out-of-Order Simulator ***
Warmup Instructions: 200000000
Simulation Instructions: 1000000000
Number of CPUs: 1
Page size: 4096

Off-chip DRAM Size: 16 GiB Channels: 1 Width: 64-bit Data Rate: 3205 MT/s
Heartbeat CPU 0 instructions: 10000000 cycles: 2741264 heartbeat IPC: 3.648 cumulative IPC: 3.648 (Simulation time: 00 hr 00 min 50 sec)
Heartbeat CPU 0 instructions: 20000001 cycles: 5492979 heartbeat IPC: 3.634 cumulative IPC: 3.641 (Simulation time: 00 hr 01 min 44 sec)
Heartbeat CPU 0 instructions: 30000005 cycles: 8185174 heartbeat IPC: 3.714 cumulative IPC: 3.665 (Simulation time: 00 hr 02 min 41 sec)
Heartbeat CPU 0 instructions: 40000005 cycles: 10690345 heartbeat IPC: 3.992 cumulative IPC: 3.742 (Simulation time: 00 hr 03 min 31 sec)
Heartbeat CPU 0 instructions: 50000007 cycles: 13190346 heartbeat IPC: 4 cumulative IPC: 3.791 (Simulation time: 00 hr 04 min 21 sec)
Heartbeat CPU 0 instructions: 60000007 cycles: 15690485 heartbeat IPC: 4 cumulative IPC: 3.824 (Simulation time: 00 hr 05 min 09 sec)
Heartbeat CPU 0 instructions: 70000008 cycles: 18199205 heartbeat IPC: 3.986 cumulative IPC: 3.846 (Simulation time: 00 hr 05 min 56 sec)
Heartbeat CPU 0 instructions: 80000009 cycles: 20699353 heartbeat IPC: 4 cumulative IPC: 3.865 (Simulation time: 00 hr 06 min 42 sec)
Heartbeat CPU 0 instructions: 90000012 cycles: 23199365 heartbeat IPC: 4 cumulative IPC: 3.879 (Simulation time: 00 hr 07 min 28 sec)
Heartbeat CPU 0 instructions: 100000014 cycles: 25845404 heartbeat IPC: 3.779 cumulative IPC: 3.869 (Simulation time: 00 hr 08 min 18 sec)
Heartbeat CPU 0 instructions: 110000017 cycles: 28345832 heartbeat IPC: 3.999 cumulative IPC: 3.881 (Simulation time: 00 hr 09 min 06 sec)
Heartbeat CPU 0 instructions: 120000020 cycles: 30845832 heartbeat IPC: 4 cumulative IPC: 3.89 (Simulation time: 00 hr 09 min 54 sec)
Heartbeat CPU 0 instructions: 130000023 cycles: 33372099 heartbeat IPC: 3.958 cumulative IPC: 3.895 (Simulation time: 00 hr 10 min 41 sec)
Heartbeat CPU 0 instructions: 140000023 cycles: 35872366 heartbeat IPC: 4 cumulative IPC: 3.903 (Simulation time: 00 hr 11 min 28 sec)
Heartbeat CPU 0 instructions: 150000025 cycles: 38372368 heartbeat IPC: 4 cumulative IPC: 3.909 (Simulation time: 00 hr 12 min 14 sec)
Heartbeat CPU 0 instructions: 160000028 cycles: 40877207 heartbeat IPC: 3.992 cumulative IPC: 3.914 (Simulation time: 00 hr 13 min 00 sec)
Heartbeat CPU 0 instructions: 170000028 cycles: 43377207 heartbeat IPC: 4 cumulative IPC: 3.919 (Simulation time: 00 hr 13 min 45 sec)
Heartbeat CPU 0 instructions: 180000029 cycles: 45877343 heartbeat IPC: 4 cumulative IPC: 3.924 (Simulation time: 00 hr 14 min 31 sec)
Heartbeat CPU 0 instructions: 190000029 cycles: 48381491 heartbeat IPC: 3.993 cumulative IPC: 3.927 (Simulation time: 00 hr 15 min 17 sec)
Warmup finished CPU 0 instructions: 200000001 cycles: 50891745 cumulative IPC: 3.93 (Simulation time: 00 hr 16 min 03 sec)
Warmup complete CPU 0 instructions: 200000001 cycles: 50891745 cumulative IPC: 3.93 (Simulation time: 00 hr 16 min 03 sec)
Heartbeat CPU 0 instructions: 200000031 cycles: 50891751 heartbeat IPC: 3.984 cumulative IPC: 5 (Simulation time: 00 hr 16 min 03 sec)
Heartbeat CPU 0 instructions: 210000031 cycles: 69493212 heartbeat IPC: 0.5376 cumulative IPC: 0.5376 (Simulation time: 00 hr 18 min 20 sec)
Heartbeat CPU 0 instructions: 220000031 cycles: 86975132 heartbeat IPC: 0.572 cumulative IPC: 0.5543 (Simulation time: 00 hr 20 min 33 sec)
Heartbeat CPU 0 instructions: 230000031 cycles: 106918849 heartbeat IPC: 0.5014 cumulative IPC: 0.5355 (Simulation time: 00 hr 22 min 57 sec)
Heartbeat CPU 0 instructions: 240000032 cycles: 122355884 heartbeat IPC: 0.6478 cumulative IPC: 0.5597 (Simulation time: 00 hr 24 min 53 sec)
Heartbeat CPU 0 instructions: 250000032 cycles: 143380555 heartbeat IPC: 0.4756 cumulative IPC: 0.5406 (Simulation time: 00 hr 27 min 29 sec)
Heartbeat CPU 0 instructions: 260000034 cycles: 160444333 heartbeat IPC: 0.586 cumulative IPC: 0.5477 (Simulation time: 00 hr 29 min 36 sec)
Heartbeat CPU 0 instructions: 270000036 cycles: 179716222 heartbeat IPC: 0.5189 cumulative IPC: 0.5434 (Simulation time: 00 hr 32 min 07 sec)
Heartbeat CPU 0 instructions: 280000036 cycles: 199711216 heartbeat IPC: 0.5001 cumulative IPC: 0.5376 (Simulation time: 00 hr 34 min 42 sec)
Heartbeat CPU 0 instructions: 290000036 cycles: 215147298 heartbeat IPC: 0.6478 cumulative IPC: 0.5479 (Simulation time: 00 hr 36 min 48 sec)
Heartbeat CPU 0 instructions: 300000038 cycles: 235645393 heartbeat IPC: 0.4879 cumulative IPC: 0.5413 (Simulation time: 00 hr 39 min 24 sec)
Heartbeat CPU 0 instructions: 310000039 cycles: 255582668 heartbeat IPC: 0.5016 cumulative IPC: 0.5374 (Simulation time: 00 hr 41 min 55 sec)
Heartbeat CPU 0 instructions: 320000041 cycles: 271114773 heartbeat IPC: 0.6438 cumulative IPC: 0.5449 (Simulation time: 00 hr 43 min 54 sec)
Heartbeat CPU 0 instructions: 330000044 cycles: 291706836 heartbeat IPC: 0.4856 cumulative IPC: 0.5398 (Simulation time: 00 hr 46 min 20 sec)
Heartbeat CPU 0 instructions: 340000045 cycles: 311659066 heartbeat IPC: 0.5012 cumulative IPC: 0.5369 (Simulation time: 00 hr 48 min 44 sec)
Heartbeat CPU 0 instructions: 350000046 cycles: 327216963 heartbeat IPC: 0.6428 cumulative IPC: 0.5428 (Simulation time: 00 hr 50 min 40 sec)
Heartbeat CPU 0 instructions: 360000047 cycles: 347907676 heartbeat IPC: 0.4833 cumulative IPC: 0.5387 (Simulation time: 00 hr 53 min 10 sec)
Heartbeat CPU 0 instructions: 370000047 cycles: 367869035 heartbeat IPC: 0.501 cumulative IPC: 0.5363 (Simulation time: 00 hr 55 min 33 sec)
Heartbeat CPU 0 instructions: 380000047 cycles: 383488934 heartbeat IPC: 0.6402 cumulative IPC: 0.5412 (Simulation time: 00 hr 57 min 36 sec)
Heartbeat CPU 0 instructions: 390000047 cycles: 404362557 heartbeat IPC: 0.4791 cumulative IPC: 0.5375 (Simulation time: 01 hr 00 min 24 sec)
Heartbeat CPU 0 instructions: 400000049 cycles: 424230718 heartbeat IPC: 0.5033 cumulative IPC: 0.5357 (Simulation time: 01 hr 02 min 51 sec)
Heartbeat CPU 0 instructions: 410000051 cycles: 439671627 heartbeat IPC: 0.6476 cumulative IPC: 0.5402 (Simulation time: 01 hr 04 min 56 sec)
Heartbeat CPU 0 instructions: 420000051 cycles: 462266595 heartbeat IPC: 0.4426 cumulative IPC: 0.5348 (Simulation time: 01 hr 07 min 49 sec)
Heartbeat CPU 0 instructions: 430000051 cycles: 482178783 heartbeat IPC: 0.5022 cumulative IPC: 0.5333 (Simulation time: 01 hr 10 min 11 sec)
Heartbeat CPU 0 instructions: 440000054 cycles: 497713874 heartbeat IPC: 0.6437 cumulative IPC: 0.5371 (Simulation time: 01 hr 12 min 17 sec)
Heartbeat CPU 0 instructions: 450000055 cycles: 518296994 heartbeat IPC: 0.4858 cumulative IPC: 0.5349 (Simulation time: 01 hr 14 min 46 sec)
Heartbeat CPU 0 instructions: 460000056 cycles: 538172613 heartbeat IPC: 0.5031 cumulative IPC: 0.5336 (Simulation time: 01 hr 17 min 16 sec)
Heartbeat CPU 0 instructions: 470000057 cycles: 553989856 heartbeat IPC: 0.6322 cumulative IPC: 0.5367 (Simulation time: 01 hr 19 min 19 sec)
Heartbeat CPU 0 instructions: 480000059 cycles: 575564282 heartbeat IPC: 0.4635 cumulative IPC: 0.5337 (Simulation time: 01 hr 22 min 00 sec)
Heartbeat CPU 0 instructions: 490000060 cycles: 591323638 heartbeat IPC: 0.6345 cumulative IPC: 0.5366 (Simulation time: 01 hr 24 min 04 sec)
Heartbeat CPU 0 instructions: 500000061 cycles: 611678110 heartbeat IPC: 0.4913 cumulative IPC: 0.535 (Simulation time: 01 hr 26 min 36 sec)
Heartbeat CPU 0 instructions: 510000062 cycles: 631404032 heartbeat IPC: 0.5069 cumulative IPC: 0.534 (Simulation time: 01 hr 28 min 59 sec)
Heartbeat CPU 0 instructions: 520000063 cycles: 647305418 heartbeat IPC: 0.6289 cumulative IPC: 0.5365 (Simulation time: 01 hr 30 min 57 sec)
Heartbeat CPU 0 instructions: 530000063 cycles: 667569855 heartbeat IPC: 0.4935 cumulative IPC: 0.5351 (Simulation time: 01 hr 33 min 29 sec)
Heartbeat CPU 0 instructions: 540000065 cycles: 685755745 heartbeat IPC: 0.5499 cumulative IPC: 0.5355 (Simulation time: 01 hr 35 min 56 sec)
Heartbeat CPU 0 instructions: 550000065 cycles: 702927363 heartbeat IPC: 0.5824 cumulative IPC: 0.5368 (Simulation time: 01 hr 38 min 13 sec)
Heartbeat CPU 0 instructions: 560000068 cycles: 725551393 heartbeat IPC: 0.442 cumulative IPC: 0.5336 (Simulation time: 01 hr 41 min 09 sec)
Heartbeat CPU 0 instructions: 570000072 cycles: 744215227 heartbeat IPC: 0.5358 cumulative IPC: 0.5337 (Simulation time: 01 hr 43 min 27 sec)
Heartbeat CPU 0 instructions: 580000073 cycles: 761931895 heartbeat IPC: 0.5644 cumulative IPC: 0.5344 (Simulation time: 01 hr 45 min 46 sec)
Heartbeat CPU 0 instructions: 590000073 cycles: 781851424 heartbeat IPC: 0.502 cumulative IPC: 0.5335 (Simulation time: 01 hr 48 min 14 sec)
Heartbeat CPU 0 instructions: 600000074 cycles: 797209150 heartbeat IPC: 0.6511 cumulative IPC: 0.536 (Simulation time: 01 hr 50 min 12 sec)
Heartbeat CPU 0 instructions: 610000076 cycles: 817633412 heartbeat IPC: 0.4896 cumulative IPC: 0.5347 (Simulation time: 01 hr 52 min 40 sec)
Heartbeat CPU 0 instructions: 620000076 cycles: 837548585 heartbeat IPC: 0.5021 cumulative IPC: 0.5339 (Simulation time: 01 hr 55 min 08 sec)
Heartbeat CPU 0 instructions: 630000077 cycles: 852885274 heartbeat IPC: 0.652 cumulative IPC: 0.5362 (Simulation time: 01 hr 57 min 06 sec)
Heartbeat CPU 0 instructions: 640000079 cycles: 873292600 heartbeat IPC: 0.49 cumulative IPC: 0.535 (Simulation time: 01 hr 59 min 38 sec)
Heartbeat CPU 0 instructions: 650000080 cycles: 893219373 heartbeat IPC: 0.5018 cumulative IPC: 0.5342 (Simulation time: 02 hr 02 min 02 sec)
Heartbeat CPU 0 instructions: 660000082 cycles: 908666734 heartbeat IPC: 0.6474 cumulative IPC: 0.5363 (Simulation time: 02 hr 04 min 05 sec)
Heartbeat CPU 0 instructions: 670000086 cycles: 929354621 heartbeat IPC: 0.4834 cumulative IPC: 0.535 (Simulation time: 02 hr 06 min 44 sec)
Heartbeat CPU 0 instructions: 680000086 cycles: 949274152 heartbeat IPC: 0.502 cumulative IPC: 0.5343 (Simulation time: 02 hr 09 min 14 sec)
Heartbeat CPU 0 instructions: 690000087 cycles: 964728850 heartbeat IPC: 0.6471 cumulative IPC: 0.5362 (Simulation time: 02 hr 11 min 17 sec)
Heartbeat CPU 0 instructions: 700000087 cycles: 985205745 heartbeat IPC: 0.4884 cumulative IPC: 0.5352 (Simulation time: 02 hr 13 min 54 sec)
Heartbeat CPU 0 instructions: 710000087 cycles: 1005124901 heartbeat IPC: 0.502 cumulative IPC: 0.5345 (Simulation time: 02 hr 16 min 24 sec)
Heartbeat CPU 0 instructions: 720000088 cycles: 1020782101 heartbeat IPC: 0.6387 cumulative IPC: 0.5361 (Simulation time: 02 hr 18 min 26 sec)
Heartbeat CPU 0 instructions: 730000088 cycles: 1041258255 heartbeat IPC: 0.4884 cumulative IPC: 0.5352 (Simulation time: 02 hr 20 min 50 sec)
Heartbeat CPU 0 instructions: 740000092 cycles: 1057213401 heartbeat IPC: 0.6268 cumulative IPC: 0.5366 (Simulation time: 02 hr 22 min 48 sec)
Heartbeat CPU 0 instructions: 750000094 cycles: 1077162085 heartbeat IPC: 0.5013 cumulative IPC: 0.5359 (Simulation time: 02 hr 25 min 08 sec)
Heartbeat CPU 0 instructions: 760000095 cycles: 1112526470 heartbeat IPC: 0.2828 cumulative IPC: 0.5275 (Simulation time: 02 hr 28 min 51 sec)
Heartbeat CPU 0 instructions: 770000096 cycles: 1137491454 heartbeat IPC: 0.4006 cumulative IPC: 0.5246 (Simulation time: 02 hr 31 min 40 sec)
Heartbeat CPU 0 instructions: 780000097 cycles: 1156496820 heartbeat IPC: 0.5262 cumulative IPC: 0.5246 (Simulation time: 02 hr 33 min 56 sec)
Heartbeat CPU 0 instructions: 790000100 cycles: 1173148250 heartbeat IPC: 0.6005 cumulative IPC: 0.5257 (Simulation time: 02 hr 35 min 57 sec)
Heartbeat CPU 0 instructions: 800000101 cycles: 1193368782 heartbeat IPC: 0.4945 cumulative IPC: 0.5252 (Simulation time: 02 hr 38 min 21 sec)
Heartbeat CPU 0 instructions: 810000101 cycles: 1210482613 heartbeat IPC: 0.5843 cumulative IPC: 0.526 (Simulation time: 02 hr 40 min 25 sec)
Heartbeat CPU 0 instructions: 820000101 cycles: 1229331417 heartbeat IPC: 0.5305 cumulative IPC: 0.5261 (Simulation time: 02 hr 42 min 40 sec)
Heartbeat CPU 0 instructions: 830000105 cycles: 1249519613 heartbeat IPC: 0.4953 cumulative IPC: 0.5256 (Simulation time: 02 hr 45 min 06 sec)
Heartbeat CPU 0 instructions: 840000108 cycles: 1265141834 heartbeat IPC: 0.6401 cumulative IPC: 0.5271 (Simulation time: 02 hr 47 min 01 sec)
Heartbeat CPU 0 instructions: 850000110 cycles: 1285719640 heartbeat IPC: 0.486 cumulative IPC: 0.5264 (Simulation time: 02 hr 49 min 33 sec)
Heartbeat CPU 0 instructions: 860000110 cycles: 1304801641 heartbeat IPC: 0.5241 cumulative IPC: 0.5264 (Simulation time: 02 hr 51 min 49 sec)
Heartbeat CPU 0 instructions: 870000111 cycles: 1321099167 heartbeat IPC: 0.6136 cumulative IPC: 0.5275 (Simulation time: 02 hr 53 min 49 sec)
Heartbeat CPU 0 instructions: 880000112 cycles: 1341400693 heartbeat IPC: 0.4926 cumulative IPC: 0.5269 (Simulation time: 02 hr 56 min 13 sec)
Heartbeat CPU 0 instructions: 890000114 cycles: 1359545044 heartbeat IPC: 0.5511 cumulative IPC: 0.5273 (Simulation time: 02 hr 58 min 23 sec)
Heartbeat CPU 0 instructions: 900000114 cycles: 1377003832 heartbeat IPC: 0.5728 cumulative IPC: 0.5279 (Simulation time: 03 hr 00 min 29 sec)
Heartbeat CPU 0 instructions: 910000114 cycles: 1397500627 heartbeat IPC: 0.4879 cumulative IPC: 0.5273 (Simulation time: 03 hr 02 min 57 sec)
Heartbeat CPU 0 instructions: 920000114 cycles: 1415682049 heartbeat IPC: 0.55 cumulative IPC: 0.5276 (Simulation time: 03 hr 05 min 08 sec)
Heartbeat CPU 0 instructions: 930000115 cycles: 1433164073 heartbeat IPC: 0.572 cumulative IPC: 0.5281 (Simulation time: 03 hr 07 min 14 sec)
Heartbeat CPU 0 instructions: 940000115 cycles: 1453566283 heartbeat IPC: 0.4901 cumulative IPC: 0.5276 (Simulation time: 03 hr 09 min 42 sec)
Heartbeat CPU 0 instructions: 950000117 cycles: 1470202850 heartbeat IPC: 0.6011 cumulative IPC: 0.5284 (Simulation time: 03 hr 11 min 44 sec)
Heartbeat CPU 0 instructions: 960000119 cycles: 1489233504 heartbeat IPC: 0.5255 cumulative IPC: 0.5284 (Simulation time: 03 hr 14 min 00 sec)
Heartbeat CPU 0 instructions: 970000121 cycles: 1509601424 heartbeat IPC: 0.491 cumulative IPC: 0.5279 (Simulation time: 03 hr 16 min 31 sec)
Heartbeat CPU 0 instructions: 980000121 cycles: 1526684367 heartbeat IPC: 0.5854 cumulative IPC: 0.5285 (Simulation time: 03 hr 18 min 35 sec)
Heartbeat CPU 0 instructions: 990000122 cycles: 1545403270 heartbeat IPC: 0.5342 cumulative IPC: 0.5286 (Simulation time: 03 hr 20 min 50 sec)
Heartbeat CPU 0 instructions: 1000000122 cycles: 1565633890 heartbeat IPC: 0.4943 cumulative IPC: 0.5281 (Simulation time: 03 hr 23 min 18 sec)
Heartbeat CPU 0 instructions: 1010000122 cycles: 1581075896 heartbeat IPC: 0.6476 cumulative IPC: 0.5293 (Simulation time: 03 hr 25 min 13 sec)
Heartbeat CPU 0 instructions: 1020000124 cycles: 1601327384 heartbeat IPC: 0.4938 cumulative IPC: 0.5289 (Simulation time: 03 hr 27 min 37 sec)
Heartbeat CPU 0 instructions: 1030000125 cycles: 1621330501 heartbeat IPC: 0.4999 cumulative IPC: 0.5285 (Simulation time: 03 hr 30 min 00 sec)
Heartbeat CPU 0 instructions: 1040000125 cycles: 1636735668 heartbeat IPC: 0.6491 cumulative IPC: 0.5297 (Simulation time: 03 hr 31 min 55 sec)
Heartbeat CPU 0 instructions: 1050000128 cycles: 1657197761 heartbeat IPC: 0.4887 cumulative IPC: 0.5292 (Simulation time: 03 hr 34 min 20 sec)
Heartbeat CPU 0 instructions: 1060000132 cycles: 1677179757 heartbeat IPC: 0.5005 cumulative IPC: 0.5288 (Simulation time: 03 hr 36 min 42 sec)
Heartbeat CPU 0 instructions: 1070000132 cycles: 1692596729 heartbeat IPC: 0.6486 cumulative IPC: 0.5299 (Simulation time: 03 hr 38 min 37 sec)
Heartbeat CPU 0 instructions: 1080000132 cycles: 1713207382 heartbeat IPC: 0.4852 cumulative IPC: 0.5294 (Simulation time: 03 hr 41 min 04 sec)
Heartbeat CPU 0 instructions: 1090000133 cycles: 1733168605 heartbeat IPC: 0.501 cumulative IPC: 0.529 (Simulation time: 03 hr 43 min 25 sec)
Heartbeat CPU 0 instructions: 1100000133 cycles: 1748553057 heartbeat IPC: 0.65 cumulative IPC: 0.5301 (Simulation time: 03 hr 45 min 20 sec)
Heartbeat CPU 0 instructions: 1110000133 cycles: 1769339615 heartbeat IPC: 0.4811 cumulative IPC: 0.5295 (Simulation time: 03 hr 47 min 53 sec)
Heartbeat CPU 0 instructions: 1120000133 cycles: 1789268879 heartbeat IPC: 0.5018 cumulative IPC: 0.5292 (Simulation time: 03 hr 50 min 16 sec)
Heartbeat CPU 0 instructions: 1130000135 cycles: 1804684294 heartbeat IPC: 0.6487 cumulative IPC: 0.5303 (Simulation time: 03 hr 52 min 10 sec)
Heartbeat CPU 0 instructions: 1140000136 cycles: 1825057667 heartbeat IPC: 0.4908 cumulative IPC: 0.5298 (Simulation time: 03 hr 54 min 37 sec)
Heartbeat CPU 0 instructions: 1150000137 cycles: 1844968633 heartbeat IPC: 0.5022 cumulative IPC: 0.5295 (Simulation time: 03 hr 56 min 59 sec)
Heartbeat CPU 0 instructions: 1160000139 cycles: 1860356526 heartbeat IPC: 0.6499 cumulative IPC: 0.5305 (Simulation time: 03 hr 58 min 53 sec)
Heartbeat CPU 0 instructions: 1170000139 cycles: 1880884921 heartbeat IPC: 0.4871 cumulative IPC: 0.5301 (Simulation time: 04 hr 01 min 19 sec)
Heartbeat CPU 0 instructions: 1180000139 cycles: 1900808304 heartbeat IPC: 0.5019 cumulative IPC: 0.5298 (Simulation time: 04 hr 03 min 40 sec)
Heartbeat CPU 0 instructions: 1190000139 cycles: 1916356719 heartbeat IPC: 0.6432 cumulative IPC: 0.5307 (Simulation time: 04 hr 05 min 36 sec)
Simulation finished CPU 0 instructions: 1000000003 cycles: 1886036244 cumulative IPC: 0.5302 (Simulation time: 04 hr 08 min 04 sec)
Simulation complete CPU 0 instructions: 1000000003 cycles: 1886036244 cumulative IPC: 0.5302 (Simulation time: 04 hr 08 min 04 sec)

ChampSim completed all CPUs

=== Simulation ===
CPU 0 runs /home/faculty/p/pgratz/dpc3_traces/602.gcc_s-734B.champsimtrace.xz

Region of Interest Statistics

CPU 0 cumulative IPC: 0.5302 instructions: 1000000003 cycles: 1886036244
CPU 0 Branch Prediction Accuracy: 94.6% MPKI: 12.82 Average ROB Occupancy at Mispredict: 50.3
Branch type MPKI
BRANCH_DIRECT_JUMP: 0.104
BRANCH_INDIRECT: 0
BRANCH_CONDITIONAL: 12.64
BRANCH_DIRECT_CALL: 0.075
BRANCH_INDIRECT_CALL: 2e-06
BRANCH_RETURN: 1e-06

cpu0->cpu0_STLB TOTAL        ACCESS:     444284 HIT:     226188 MISS:     218096 MSHR_MERGE:          0
cpu0->cpu0_STLB LOAD         ACCESS:     444284 HIT:     226188 MISS:     218096 MSHR_MERGE:          0
cpu0->cpu0_STLB RFO          ACCESS:          0 HIT:          0 MISS:          0 MSHR_MERGE:          0
cpu0->cpu0_STLB PREFETCH     ACCESS:          0 HIT:          0 MISS:          0 MSHR_MERGE:          0
cpu0->cpu0_STLB WRITE        ACCESS:          0 HIT:          0 MISS:          0 MSHR_MERGE:          0
cpu0->cpu0_STLB TRANSLATION  ACCESS:          0 HIT:          0 MISS:          0 MSHR_MERGE:          0
cpu0->cpu0_STLB PREFETCH REQUESTED:          0 ISSUED:          0 USEFUL:          0 USELESS:          0
cpu0->cpu0_STLB AVERAGE MISS LATENCY: 101.2 cycles
cpu0->cpu0_L2C TOTAL        ACCESS:   16782613 HIT:    8421330 MISS:    8361283 MSHR_MERGE:          0
cpu0->cpu0_L2C LOAD         ACCESS:   16489856 HIT:    8242831 MISS:    8247025 MSHR_MERGE:          0
cpu0->cpu0_L2C RFO          ACCESS:       9535 HIT:       1776 MISS:       7759 MSHR_MERGE:          0
cpu0->cpu0_L2C PREFETCH     ACCESS:          0 HIT:          0 MISS:          0 MSHR_MERGE:          0
cpu0->cpu0_L2C WRITE        ACCESS:     164744 HIT:     164678 MISS:         66 MSHR_MERGE:          0
cpu0->cpu0_L2C TRANSLATION  ACCESS:     118478 HIT:      12045 MISS:     106433 MSHR_MERGE:          0
cpu0->cpu0_L2C PREFETCH REQUESTED:          0 ISSUED:          0 USEFUL:          0 USELESS:          0
cpu0->cpu0_L2C AVERAGE MISS LATENCY: 148.1 cycles
cpu0->cpu0_L1I TOTAL        ACCESS:    1184270 HIT:    1184269 MISS:          1 MSHR_MERGE:          0
cpu0->cpu0_L1I LOAD         ACCESS:    1184270 HIT:    1184269 MISS:          1 MSHR_MERGE:          0
cpu0->cpu0_L1I RFO          ACCESS:          0 HIT:          0 MISS:          0 MSHR_MERGE:          0
cpu0->cpu0_L1I PREFETCH     ACCESS:          0 HIT:          0 MISS:          0 MSHR_MERGE:          0
cpu0->cpu0_L1I WRITE        ACCESS:          0 HIT:          0 MISS:          0 MSHR_MERGE:          0
cpu0->cpu0_L1I TRANSLATION  ACCESS:          0 HIT:          0 MISS:          0 MSHR_MERGE:          0
cpu0->cpu0_L1I PREFETCH REQUESTED:          0 ISSUED:          0 USEFUL:          0 USELESS:          0
cpu0->cpu0_L1I AVERAGE MISS LATENCY: 224 cycles
cpu0->cpu0_L1D TOTAL        ACCESS:  306014440 HIT:  266086267 MISS:   39928173 MSHR_MERGE:   23310303
cpu0->cpu0_L1D LOAD         ACCESS:  205666697 HIT:  165908636 MISS:   39758061 MSHR_MERGE:   23268206
cpu0->cpu0_L1D RFO          ACCESS:          0 HIT:          0 MISS:          0 MSHR_MERGE:          0
cpu0->cpu0_L1D PREFETCH     ACCESS:          0 HIT:          0 MISS:          0 MSHR_MERGE:          0
cpu0->cpu0_L1D WRITE        ACCESS:  100112510 HIT:  100060884 MISS:      51626 MSHR_MERGE:      42089
cpu0->cpu0_L1D TRANSLATION  ACCESS:     235233 HIT:     116747 MISS:     118486 MSHR_MERGE:          8
cpu0->cpu0_L1D PREFETCH REQUESTED:          0 ISSUED:          0 USEFUL:          0 USELESS:          0
cpu0->cpu0_L1D AVERAGE MISS LATENCY: 83.04 cycles
cpu0->cpu0_ITLB TOTAL        ACCESS:    1067343 HIT:    1067343 MISS:          0 MSHR_MERGE:          0
cpu0->cpu0_ITLB LOAD         ACCESS:    1067343 HIT:    1067343 MISS:          0 MSHR_MERGE:          0
cpu0->cpu0_ITLB RFO          ACCESS:          0 HIT:          0 MISS:          0 MSHR_MERGE:          0
cpu0->cpu0_ITLB PREFETCH     ACCESS:          0 HIT:          0 MISS:          0 MSHR_MERGE:          0
cpu0->cpu0_ITLB WRITE        ACCESS:          0 HIT:          0 MISS:          0 MSHR_MERGE:          0
cpu0->cpu0_ITLB TRANSLATION  ACCESS:          0 HIT:          0 MISS:          0 MSHR_MERGE:          0
cpu0->cpu0_ITLB PREFETCH REQUESTED:          0 ISSUED:          0 USEFUL:          0 USELESS:          0
cpu0->cpu0_ITLB AVERAGE MISS LATENCY: - cycles
cpu0->cpu0_DTLB TOTAL        ACCESS:  304127883 HIT:  303142768 MISS:     985115 MSHR_MERGE:     540831
cpu0->cpu0_DTLB LOAD         ACCESS:  304127883 HIT:  303142768 MISS:     985115 MSHR_MERGE:     540831
cpu0->cpu0_DTLB RFO          ACCESS:          0 HIT:          0 MISS:          0 MSHR_MERGE:          0
cpu0->cpu0_DTLB PREFETCH     ACCESS:          0 HIT:          0 MISS:          0 MSHR_MERGE:          0
cpu0->cpu0_DTLB WRITE        ACCESS:          0 HIT:          0 MISS:          0 MSHR_MERGE:          0
cpu0->cpu0_DTLB TRANSLATION  ACCESS:          0 HIT:          0 MISS:          0 MSHR_MERGE:          0
cpu0->cpu0_DTLB PREFETCH REQUESTED:          0 ISSUED:          0 USEFUL:          0 USELESS:          0
cpu0->cpu0_DTLB AVERAGE MISS LATENCY: 55.16 cycles
cpu0->LLC TOTAL        ACCESS:    8440910 HIT:    1108312 MISS:    7332598 MSHR_MERGE:          0
cpu0->LLC LOAD         ACCESS:    8247025 HIT:    1090309 MISS:    7156716 MSHR_MERGE:          0
cpu0->LLC RFO          ACCESS:       7759 HIT:         26 MISS:       7733 MSHR_MERGE:          0
cpu0->LLC PREFETCH     ACCESS:          0 HIT:          0 MISS:          0 MSHR_MERGE:          0
cpu0->LLC WRITE        ACCESS:      79693 HIT:       4481 MISS:      75212 MSHR_MERGE:          0
cpu0->LLC TRANSLATION  ACCESS:     106433 HIT:      13496 MISS:      92937 MSHR_MERGE:          0
cpu0->LLC PREFETCH REQUESTED:          0 ISSUED:          0 USEFUL:          0 USELESS:          0
cpu0->LLC AVERAGE MISS LATENCY: 150.9 cycles

DRAM Statistics

Channel 0 RQ ROW_BUFFER_HIT:    1188048
  ROW_BUFFER_MISS:    6069334
  AVG DBUS CONGESTED CYCLE: 18.76
Channel 0 WQ ROW_BUFFER_HIT:      20666
  ROW_BUFFER_MISS:      56043
  FULL:          0
Channel 0 REFRESHES ISSUED:     157170
