[VMEM] WARNING: physical memory size is smaller than virtual memory size.
WARNING: option --warmup_instructions is deprecated. Use --warmup-instructions instead.
WARNING: option --simulation_instructions is deprecated. Use --simulation-instructions instead.

*** ChampSim Multicore Out-of-Order Simulator ***
Warmup Instructions: 200000000
Simulation Instructions: 1000000000
Number of CPUs: 1
Page size: 4096

Off-chip DRAM Size: 16 GiB Channels: 1 Width: 64-bit Data Rate: 3205 MT/s
Heartbeat CPU 0 instructions: 10000002 cycles: 2854417 heartbeat IPC: 3.503 cumulative IPC: 3.503 (Simulation time: 00 hr 00 min 58 sec)
Heartbeat CPU 0 instructions: 20000006 cycles: 5675778 heartbeat IPC: 3.544 cumulative IPC: 3.524 (Simulation time: 00 hr 01 min 55 sec)
Heartbeat CPU 0 instructions: 30000006 cycles: 8489098 heartbeat IPC: 3.555 cumulative IPC: 3.534 (Simulation time: 00 hr 02 min 51 sec)
Heartbeat CPU 0 instructions: 40000007 cycles: 11303923 heartbeat IPC: 3.553 cumulative IPC: 3.539 (Simulation time: 00 hr 03 min 48 sec)
Heartbeat CPU 0 instructions: 50000010 cycles: 14106907 heartbeat IPC: 3.568 cumulative IPC: 3.544 (Simulation time: 00 hr 04 min 45 sec)
Heartbeat CPU 0 instructions: 60000010 cycles: 16926083 heartbeat IPC: 3.547 cumulative IPC: 3.545 (Simulation time: 00 hr 05 min 41 sec)
Heartbeat CPU 0 instructions: 70000013 cycles: 19736224 heartbeat IPC: 3.559 cumulative IPC: 3.547 (Simulation time: 00 hr 06 min 38 sec)
Heartbeat CPU 0 instructions: 80000016 cycles: 22551063 heartbeat IPC: 3.553 cumulative IPC: 3.548 (Simulation time: 00 hr 07 min 35 sec)
Heartbeat CPU 0 instructions: 90000019 cycles: 25358810 heartbeat IPC: 3.562 cumulative IPC: 3.549 (Simulation time: 00 hr 08 min 33 sec)
Heartbeat CPU 0 instructions: 100000019 cycles: 28132588 heartbeat IPC: 3.605 cumulative IPC: 3.555 (Simulation time: 00 hr 09 min 29 sec)
Heartbeat CPU 0 instructions: 110000019 cycles: 30906880 heartbeat IPC: 3.605 cumulative IPC: 3.559 (Simulation time: 00 hr 10 min 25 sec)
Heartbeat CPU 0 instructions: 120000021 cycles: 33679441 heartbeat IPC: 3.607 cumulative IPC: 3.563 (Simulation time: 00 hr 11 min 20 sec)
Heartbeat CPU 0 instructions: 130000024 cycles: 36450027 heartbeat IPC: 3.609 cumulative IPC: 3.567 (Simulation time: 00 hr 12 min 16 sec)
Heartbeat CPU 0 instructions: 140000027 cycles: 39220985 heartbeat IPC: 3.609 cumulative IPC: 3.57 (Simulation time: 00 hr 13 min 12 sec)
Heartbeat CPU 0 instructions: 150000030 cycles: 41988990 heartbeat IPC: 3.613 cumulative IPC: 3.572 (Simulation time: 00 hr 14 min 08 sec)
Heartbeat CPU 0 instructions: 160000033 cycles: 44749590 heartbeat IPC: 3.622 cumulative IPC: 3.575 (Simulation time: 00 hr 15 min 07 sec)
Heartbeat CPU 0 instructions: 170000037 cycles: 47521639 heartbeat IPC: 3.607 cumulative IPC: 3.577 (Simulation time: 00 hr 16 min 04 sec)
Heartbeat CPU 0 instructions: 180000039 cycles: 50279554 heartbeat IPC: 3.626 cumulative IPC: 3.58 (Simulation time: 00 hr 17 min 02 sec)
Heartbeat CPU 0 instructions: 190000043 cycles: 53052723 heartbeat IPC: 3.606 cumulative IPC: 3.581 (Simulation time: 00 hr 17 min 59 sec)
Warmup finished CPU 0 instructions: 200000003 cycles: 55827020 cumulative IPC: 3.582 (Simulation time: 00 hr 18 min 55 sec)
Warmup complete CPU 0 instructions: 200000003 cycles: 55827020 cumulative IPC: 3.582 (Simulation time: 00 hr 18 min 55 sec)
Heartbeat CPU 0 instructions: 200000043 cycles: 55827196 heartbeat IPC: 3.604 cumulative IPC: 0.2273 (Simulation time: 00 hr 18 min 55 sec)
Heartbeat CPU 0 instructions: 210000044 cycles: 90365680 heartbeat IPC: 0.2895 cumulative IPC: 0.2895 (Simulation time: 00 hr 23 min 47 sec)
Heartbeat CPU 0 instructions: 220000045 cycles: 122791989 heartbeat IPC: 0.3084 cumulative IPC: 0.2987 (Simulation time: 00 hr 28 min 07 sec)
Heartbeat CPU 0 instructions: 230000047 cycles: 157475178 heartbeat IPC: 0.2883 cumulative IPC: 0.2951 (Simulation time: 00 hr 32 min 54 sec)
Heartbeat CPU 0 instructions: 240000051 cycles: 189166343 heartbeat IPC: 0.3155 cumulative IPC: 0.3 (Simulation time: 00 hr 37 min 15 sec)
Heartbeat CPU 0 instructions: 250000051 cycles: 222093507 heartbeat IPC: 0.3037 cumulative IPC: 0.3007 (Simulation time: 00 hr 41 min 46 sec)
Heartbeat CPU 0 instructions: 260000051 cycles: 255247964 heartbeat IPC: 0.3016 cumulative IPC: 0.3009 (Simulation time: 00 hr 46 min 21 sec)
Heartbeat CPU 0 instructions: 270000051 cycles: 288602239 heartbeat IPC: 0.2998 cumulative IPC: 0.3007 (Simulation time: 00 hr 50 min 56 sec)
Heartbeat CPU 0 instructions: 280000053 cycles: 321763659 heartbeat IPC: 0.3016 cumulative IPC: 0.3008 (Simulation time: 00 hr 55 min 28 sec)
Heartbeat CPU 0 instructions: 290000056 cycles: 353501736 heartbeat IPC: 0.3151 cumulative IPC: 0.3023 (Simulation time: 00 hr 59 min 49 sec)
Heartbeat CPU 0 instructions: 300000058 cycles: 385605673 heartbeat IPC: 0.3115 cumulative IPC: 0.3032 (Simulation time: 01 hr 04 min 19 sec)
Heartbeat CPU 0 instructions: 310000060 cycles: 415181035 heartbeat IPC: 0.3381 cumulative IPC: 0.3061 (Simulation time: 01 hr 08 min 31 sec)
Heartbeat CPU 0 instructions: 320000063 cycles: 446903271 heartbeat IPC: 0.3152 cumulative IPC: 0.3068 (Simulation time: 01 hr 12 min 59 sec)
Heartbeat CPU 0 instructions: 330000064 cycles: 478273627 heartbeat IPC: 0.3188 cumulative IPC: 0.3077 (Simulation time: 01 hr 17 min 23 sec)
Heartbeat CPU 0 instructions: 340000068 cycles: 509498085 heartbeat IPC: 0.3203 cumulative IPC: 0.3086 (Simulation time: 01 hr 21 min 49 sec)
Heartbeat CPU 0 instructions: 350000069 cycles: 540887398 heartbeat IPC: 0.3186 cumulative IPC: 0.3092 (Simulation time: 01 hr 26 min 13 sec)
Heartbeat CPU 0 instructions: 360000069 cycles: 571736737 heartbeat IPC: 0.3242 cumulative IPC: 0.3101 (Simulation time: 01 hr 30 min 33 sec)
Heartbeat CPU 0 instructions: 370000072 cycles: 602277676 heartbeat IPC: 0.3274 cumulative IPC: 0.3111 (Simulation time: 01 hr 34 min 51 sec)
Heartbeat CPU 0 instructions: 380000073 cycles: 633593088 heartbeat IPC: 0.3193 cumulative IPC: 0.3115 (Simulation time: 01 hr 39 min 13 sec)
Heartbeat CPU 0 instructions: 390000073 cycles: 664866769 heartbeat IPC: 0.3198 cumulative IPC: 0.312 (Simulation time: 01 hr 43 min 33 sec)
Heartbeat CPU 0 instructions: 400000074 cycles: 696277453 heartbeat IPC: 0.3184 cumulative IPC: 0.3123 (Simulation time: 01 hr 47 min 54 sec)
Heartbeat CPU 0 instructions: 410000074 cycles: 727719757 heartbeat IPC: 0.318 cumulative IPC: 0.3125 (Simulation time: 01 hr 52 min 13 sec)
Heartbeat CPU 0 instructions: 420000074 cycles: 759039372 heartbeat IPC: 0.3193 cumulative IPC: 0.3129 (Simulation time: 01 hr 56 min 34 sec)
Heartbeat CPU 0 instructions: 430000074 cycles: 790452811 heartbeat IPC: 0.3183 cumulative IPC: 0.3131 (Simulation time: 02 hr 00 min 52 sec)
Heartbeat CPU 0 instructions: 440000076 cycles: 821762311 heartbeat IPC: 0.3194 cumulative IPC: 0.3133 (Simulation time: 02 hr 05 min 09 sec)
Heartbeat CPU 0 instructions: 450000078 cycles: 853659764 heartbeat IPC: 0.3135 cumulative IPC: 0.3133 (Simulation time: 02 hr 09 min 32 sec)
Heartbeat CPU 0 instructions: 460000078 cycles: 886394992 heartbeat IPC: 0.3055 cumulative IPC: 0.313 (Simulation time: 02 hr 14 min 02 sec)
Heartbeat CPU 0 instructions: 470000081 cycles: 921082522 heartbeat IPC: 0.2883 cumulative IPC: 0.312 (Simulation time: 02 hr 18 min 46 sec)
Heartbeat CPU 0 instructions: 480000085 cycles: 954723363 heartbeat IPC: 0.2973 cumulative IPC: 0.3115 (Simulation time: 02 hr 23 min 15 sec)
Heartbeat CPU 0 instructions: 490000086 cycles: 988441706 heartbeat IPC: 0.2966 cumulative IPC: 0.311 (Simulation time: 02 hr 27 min 45 sec)
Heartbeat CPU 0 instructions: 500000086 cycles: 1023577569 heartbeat IPC: 0.2846 cumulative IPC: 0.31 (Simulation time: 02 hr 32 min 25 sec)
Heartbeat CPU 0 instructions: 510000086 cycles: 1057262346 heartbeat IPC: 0.2969 cumulative IPC: 0.3096 (Simulation time: 02 hr 36 min 54 sec)
Heartbeat CPU 0 instructions: 520000087 cycles: 1091076398 heartbeat IPC: 0.2957 cumulative IPC: 0.3091 (Simulation time: 02 hr 41 min 26 sec)
Heartbeat CPU 0 instructions: 530000091 cycles: 1126505640 heartbeat IPC: 0.2823 cumulative IPC: 0.3082 (Simulation time: 02 hr 46 min 10 sec)
Heartbeat CPU 0 instructions: 540000091 cycles: 1160539874 heartbeat IPC: 0.2938 cumulative IPC: 0.3078 (Simulation time: 02 hr 50 min 36 sec)
Heartbeat CPU 0 instructions: 550000092 cycles: 1196138771 heartbeat IPC: 0.2809 cumulative IPC: 0.3069 (Simulation time: 02 hr 55 min 11 sec)
Heartbeat CPU 0 instructions: 560000092 cycles: 1231812119 heartbeat IPC: 0.2803 cumulative IPC: 0.3061 (Simulation time: 02 hr 59 min 48 sec)
Heartbeat CPU 0 instructions: 570000093 cycles: 1276148276 heartbeat IPC: 0.2255 cumulative IPC: 0.3032 (Simulation time: 03 hr 05 min 56 sec)
Heartbeat CPU 0 instructions: 580000096 cycles: 1315762502 heartbeat IPC: 0.2524 cumulative IPC: 0.3016 (Simulation time: 03 hr 11 min 03 sec)
Heartbeat CPU 0 instructions: 590000098 cycles: 1356903354 heartbeat IPC: 0.2431 cumulative IPC: 0.2998 (Simulation time: 03 hr 16 min 20 sec)
Heartbeat CPU 0 instructions: 600000100 cycles: 1396898198 heartbeat IPC: 0.25 cumulative IPC: 0.2983 (Simulation time: 03 hr 21 min 28 sec)
Heartbeat CPU 0 instructions: 610000101 cycles: 1437913664 heartbeat IPC: 0.2438 cumulative IPC: 0.2967 (Simulation time: 03 hr 26 min 42 sec)
Heartbeat CPU 0 instructions: 620000101 cycles: 1477561160 heartbeat IPC: 0.2522 cumulative IPC: 0.2954 (Simulation time: 03 hr 31 min 46 sec)
Heartbeat CPU 0 instructions: 630000101 cycles: 1518443851 heartbeat IPC: 0.2446 cumulative IPC: 0.294 (Simulation time: 03 hr 36 min 54 sec)
Heartbeat CPU 0 instructions: 640000101 cycles: 1559374765 heartbeat IPC: 0.2443 cumulative IPC: 0.2926 (Simulation time: 03 hr 41 min 58 sec)
Heartbeat CPU 0 instructions: 650000101 cycles: 1598918139 heartbeat IPC: 0.2529 cumulative IPC: 0.2916 (Simulation time: 03 hr 46 min 54 sec)
Heartbeat CPU 0 instructions: 660000101 cycles: 1639717937 heartbeat IPC: 0.2451 cumulative IPC: 0.2904 (Simulation time: 03 hr 52 min 05 sec)
Heartbeat CPU 0 instructions: 670000101 cycles: 1680608257 heartbeat IPC: 0.2446 cumulative IPC: 0.2893 (Simulation time: 03 hr 57 min 07 sec)
Heartbeat CPU 0 instructions: 680000102 cycles: 1721554900 heartbeat IPC: 0.2442 cumulative IPC: 0.2882 (Simulation time: 04 hr 02 min 09 sec)
Heartbeat CPU 0 instructions: 690000104 cycles: 1760823988 heartbeat IPC: 0.2547 cumulative IPC: 0.2874 (Simulation time: 04 hr 07 min 01 sec)
Heartbeat CPU 0 instructions: 700000108 cycles: 1802169884 heartbeat IPC: 0.2419 cumulative IPC: 0.2863 (Simulation time: 04 hr 12 min 07 sec)
Heartbeat CPU 0 instructions: 710000110 cycles: 1843424074 heartbeat IPC: 0.2424 cumulative IPC: 0.2853 (Simulation time: 04 hr 17 min 10 sec)
Heartbeat CPU 0 instructions: 720000111 cycles: 1885349361 heartbeat IPC: 0.2385 cumulative IPC: 0.2842 (Simulation time: 04 hr 22 min 22 sec)
Heartbeat CPU 0 instructions: 730000111 cycles: 1927787185 heartbeat IPC: 0.2356 cumulative IPC: 0.2831 (Simulation time: 04 hr 27 min 34 sec)
Heartbeat CPU 0 instructions: 740000111 cycles: 1970095944 heartbeat IPC: 0.2364 cumulative IPC: 0.2821 (Simulation time: 04 hr 32 min 39 sec)
Heartbeat CPU 0 instructions: 750000113 cycles: 2012348019 heartbeat IPC: 0.2367 cumulative IPC: 0.2811 (Simulation time: 04 hr 37 min 46 sec)
Heartbeat CPU 0 instructions: 760000116 cycles: 2055811395 heartbeat IPC: 0.2301 cumulative IPC: 0.28 (Simulation time: 04 hr 42 min 58 sec)
Heartbeat CPU 0 instructions: 770000116 cycles: 2099199796 heartbeat IPC: 0.2305 cumulative IPC: 0.279 (Simulation time: 04 hr 48 min 13 sec)
Heartbeat CPU 0 instructions: 780000117 cycles: 2142593948 heartbeat IPC: 0.2304 cumulative IPC: 0.2779 (Simulation time: 04 hr 53 min 30 sec)
Heartbeat CPU 0 instructions: 790000119 cycles: 2185794787 heartbeat IPC: 0.2315 cumulative IPC: 0.277 (Simulation time: 04 hr 58 min 47 sec)
Heartbeat CPU 0 instructions: 800000121 cycles: 2237614767 heartbeat IPC: 0.193 cumulative IPC: 0.275 (Simulation time: 05 hr 05 min 03 sec)
Heartbeat CPU 0 instructions: 810000121 cycles: 2289793526 heartbeat IPC: 0.1916 cumulative IPC: 0.2731 (Simulation time: 05 hr 11 min 12 sec)
Heartbeat CPU 0 instructions: 820000121 cycles: 2342425653 heartbeat IPC: 0.19 cumulative IPC: 0.2711 (Simulation time: 05 hr 17 min 46 sec)
Heartbeat CPU 0 instructions: 830000124 cycles: 2400100745 heartbeat IPC: 0.1734 cumulative IPC: 0.2687 (Simulation time: 05 hr 24 min 51 sec)
Heartbeat CPU 0 instructions: 840000124 cycles: 2456264520 heartbeat IPC: 0.1781 cumulative IPC: 0.2666 (Simulation time: 05 hr 31 min 47 sec)
Heartbeat CPU 0 instructions: 850000126 cycles: 2517650248 heartbeat IPC: 0.1629 cumulative IPC: 0.264 (Simulation time: 05 hr 39 min 25 sec)
Heartbeat CPU 0 instructions: 860000126 cycles: 2578542632 heartbeat IPC: 0.1642 cumulative IPC: 0.2616 (Simulation time: 05 hr 46 min 52 sec)
Heartbeat CPU 0 instructions: 870000126 cycles: 2640211564 heartbeat IPC: 0.1622 cumulative IPC: 0.2592 (Simulation time: 05 hr 54 min 27 sec)
Heartbeat CPU 0 instructions: 880000126 cycles: 2702259031 heartbeat IPC: 0.1612 cumulative IPC: 0.2569 (Simulation time: 06 hr 02 min 06 sec)
Heartbeat CPU 0 instructions: 890000130 cycles: 2765424790 heartbeat IPC: 0.1583 cumulative IPC: 0.2547 (Simulation time: 06 hr 09 min 50 sec)
Heartbeat CPU 0 instructions: 900000130 cycles: 2828902509 heartbeat IPC: 0.1575 cumulative IPC: 0.2524 (Simulation time: 06 hr 17 min 36 sec)
Heartbeat CPU 0 instructions: 910000132 cycles: 2892193827 heartbeat IPC: 0.158 cumulative IPC: 0.2503 (Simulation time: 06 hr 25 min 20 sec)
Heartbeat CPU 0 instructions: 920000133 cycles: 2957487431 heartbeat IPC: 0.1532 cumulative IPC: 0.2481 (Simulation time: 06 hr 33 min 17 sec)
Heartbeat CPU 0 instructions: 930000133 cycles: 3021550802 heartbeat IPC: 0.1561 cumulative IPC: 0.2461 (Simulation time: 06 hr 41 min 03 sec)
Heartbeat CPU 0 instructions: 940000137 cycles: 3086094325 heartbeat IPC: 0.1549 cumulative IPC: 0.2442 (Simulation time: 06 hr 48 min 46 sec)
Heartbeat CPU 0 instructions: 950000138 cycles: 3151312098 heartbeat IPC: 0.1533 cumulative IPC: 0.2423 (Simulation time: 06 hr 56 min 37 sec)
Heartbeat CPU 0 instructions: 960000140 cycles: 3216188449 heartbeat IPC: 0.1541 cumulative IPC: 0.2405 (Simulation time: 07 hr 04 min 20 sec)
Heartbeat CPU 0 instructions: 970000140 cycles: 3281428656 heartbeat IPC: 0.1533 cumulative IPC: 0.2387 (Simulation time: 07 hr 12 min 13 sec)
Heartbeat CPU 0 instructions: 980000141 cycles: 3344745682 heartbeat IPC: 0.1579 cumulative IPC: 0.2372 (Simulation time: 07 hr 19 min 51 sec)
Heartbeat CPU 0 instructions: 990000142 cycles: 3405952257 heartbeat IPC: 0.1634 cumulative IPC: 0.2358 (Simulation time: 07 hr 27 min 14 sec)
Heartbeat CPU 0 instructions: 1000000142 cycles: 3467115106 heartbeat IPC: 0.1635 cumulative IPC: 0.2345 (Simulation time: 07 hr 34 min 32 sec)
Heartbeat CPU 0 instructions: 1010000146 cycles: 3529653489 heartbeat IPC: 0.1599 cumulative IPC: 0.2332 (Simulation time: 07 hr 42 min 02 sec)
Heartbeat CPU 0 instructions: 1020000146 cycles: 3591626861 heartbeat IPC: 0.1614 cumulative IPC: 0.2319 (Simulation time: 07 hr 49 min 28 sec)
Heartbeat CPU 0 instructions: 1030000146 cycles: 3649127189 heartbeat IPC: 0.1739 cumulative IPC: 0.231 (Simulation time: 07 hr 56 min 31 sec)
Heartbeat CPU 0 instructions: 1040000146 cycles: 3706729385 heartbeat IPC: 0.1736 cumulative IPC: 0.2301 (Simulation time: 08 hr 03 min 26 sec)
Heartbeat CPU 0 instructions: 1050000146 cycles: 3762330939 heartbeat IPC: 0.1799 cumulative IPC: 0.2293 (Simulation time: 08 hr 10 min 05 sec)
Heartbeat CPU 0 instructions: 1060000146 cycles: 3817567725 heartbeat IPC: 0.181 cumulative IPC: 0.2286 (Simulation time: 08 hr 16 min 38 sec)
Heartbeat CPU 0 instructions: 1070000147 cycles: 3872225741 heartbeat IPC: 0.183 cumulative IPC: 0.228 (Simulation time: 08 hr 23 min 23 sec)
Heartbeat CPU 0 instructions: 1080000150 cycles: 3926665340 heartbeat IPC: 0.1837 cumulative IPC: 0.2273 (Simulation time: 08 hr 30 min 04 sec)
Heartbeat CPU 0 instructions: 1090000151 cycles: 3982966981 heartbeat IPC: 0.1776 cumulative IPC: 0.2266 (Simulation time: 08 hr 36 min 57 sec)
Heartbeat CPU 0 instructions: 1100000152 cycles: 4037715604 heartbeat IPC: 0.1827 cumulative IPC: 0.226 (Simulation time: 08 hr 43 min 24 sec)
Heartbeat CPU 0 instructions: 1110000152 cycles: 4094443229 heartbeat IPC: 0.1763 cumulative IPC: 0.2253 (Simulation time: 08 hr 50 min 11 sec)
Heartbeat CPU 0 instructions: 1120000152 cycles: 4149691804 heartbeat IPC: 0.181 cumulative IPC: 0.2247 (Simulation time: 08 hr 57 min 03 sec)
Heartbeat CPU 0 instructions: 1130000152 cycles: 4205588559 heartbeat IPC: 0.1789 cumulative IPC: 0.2241 (Simulation time: 09 hr 04 min 01 sec)
Heartbeat CPU 0 instructions: 1140000152 cycles: 4259597864 heartbeat IPC: 0.1852 cumulative IPC: 0.2236 (Simulation time: 09 hr 10 min 40 sec)
Heartbeat CPU 0 instructions: 1150000154 cycles: 4315461834 heartbeat IPC: 0.179 cumulative IPC: 0.223 (Simulation time: 09 hr 17 min 31 sec)
Heartbeat CPU 0 instructions: 1160000154 cycles: 4369675787 heartbeat IPC: 0.1845 cumulative IPC: 0.2225 (Simulation time: 09 hr 24 min 09 sec)
Heartbeat CPU 0 instructions: 1170000158 cycles: 4425451952 heartbeat IPC: 0.1793 cumulative IPC: 0.222 (Simulation time: 09 hr 30 min 58 sec)
Heartbeat CPU 0 instructions: 1180000161 cycles: 4480797003 heartbeat IPC: 0.1807 cumulative IPC: 0.2215 (Simulation time: 09 hr 37 min 41 sec)
Heartbeat CPU 0 instructions: 1190000162 cycles: 4538596207 heartbeat IPC: 0.173 cumulative IPC: 0.2208 (Simulation time: 09 hr 44 min 40 sec)
Simulation finished CPU 0 instructions: 1000000000 cycles: 4541703867 cumulative IPC: 0.2202 (Simulation time: 09 hr 51 min 44 sec)
Simulation complete CPU 0 instructions: 1000000000 cycles: 4541703867 cumulative IPC: 0.2202 (Simulation time: 09 hr 51 min 44 sec)

ChampSim completed all CPUs

=== Simulation ===
CPU 0 runs /home/faculty/p/pgratz/dpc3_traces/605.mcf_s-665B.champsimtrace.xz

Region of Interest Statistics

CPU 0 cumulative IPC: 0.2202 instructions: 1000000000 cycles: 4541703867
CPU 0 Branch Prediction Accuracy: 86.53% MPKI: 33.94 Average ROB Occupancy at Mispredict: 13.82
Branch type MPKI
BRANCH_DIRECT_JUMP: 0.2626
BRANCH_INDIRECT: 0
BRANCH_CONDITIONAL: 33.68
BRANCH_DIRECT_CALL: 0
BRANCH_INDIRECT_CALL: 2.9e-05
BRANCH_RETURN: 0

cpu0->cpu0_STLB TOTAL        ACCESS:   18811711 HIT:   18538162 MISS:     273549 MSHR_MERGE:          0
cpu0->cpu0_STLB LOAD         ACCESS:   18811711 HIT:   18538162 MISS:     273549 MSHR_MERGE:          0
cpu0->cpu0_STLB RFO          ACCESS:          0 HIT:          0 MISS:          0 MSHR_MERGE:          0
cpu0->cpu0_STLB PREFETCH     ACCESS:          0 HIT:          0 MISS:          0 MSHR_MERGE:          0
cpu0->cpu0_STLB WRITE        ACCESS:          0 HIT:          0 MISS:          0 MSHR_MERGE:          0
cpu0->cpu0_STLB TRANSLATION  ACCESS:          0 HIT:          0 MISS:          0 MSHR_MERGE:          0
cpu0->cpu0_STLB PREFETCH REQUESTED:          0 ISSUED:          0 USEFUL:          0 USELESS:          0
cpu0->cpu0_STLB AVERAGE MISS LATENCY: 154.8 cycles
cpu0->cpu0_L2C TOTAL        ACCESS:   47078472 HIT:   18891959 MISS:   28186513 MSHR_MERGE:          0
cpu0->cpu0_L2C LOAD         ACCESS:   37539899 HIT:   11197442 MISS:   26342457 MSHR_MERGE:          0
cpu0->cpu0_L2C RFO          ACCESS:    3757374 HIT:    2039465 MISS:    1717909 MSHR_MERGE:          0
cpu0->cpu0_L2C PREFETCH     ACCESS:          0 HIT:          0 MISS:          0 MSHR_MERGE:          0
cpu0->cpu0_L2C WRITE        ACCESS:    5633355 HIT:    5629889 MISS:       3466 MSHR_MERGE:          0
cpu0->cpu0_L2C TRANSLATION  ACCESS:     147844 HIT:      25163 MISS:     122681 MSHR_MERGE:          0
cpu0->cpu0_L2C PREFETCH REQUESTED:          0 ISSUED:          0 USEFUL:          0 USELESS:          0
cpu0->cpu0_L2C AVERAGE MISS LATENCY: 143.8 cycles
cpu0->cpu0_L1I TOTAL        ACCESS:    3413218 HIT:    3413218 MISS:          0 MSHR_MERGE:          0
cpu0->cpu0_L1I LOAD         ACCESS:    3413218 HIT:    3413218 MISS:          0 MSHR_MERGE:          0
cpu0->cpu0_L1I RFO          ACCESS:          0 HIT:          0 MISS:          0 MSHR_MERGE:          0
cpu0->cpu0_L1I PREFETCH     ACCESS:          0 HIT:          0 MISS:          0 MSHR_MERGE:          0
cpu0->cpu0_L1I WRITE        ACCESS:          0 HIT:          0 MISS:          0 MSHR_MERGE:          0
cpu0->cpu0_L1I TRANSLATION  ACCESS:          0 HIT:          0 MISS:          0 MSHR_MERGE:          0
cpu0->cpu0_L1I PREFETCH REQUESTED:          0 ISSUED:          0 USEFUL:          0 USELESS:          0
cpu0->cpu0_L1I AVERAGE MISS LATENCY: - cycles
cpu0->cpu0_L1D TOTAL        ACCESS:  402871857 HIT:  345008885 MISS:   57862972 MSHR_MERGE:   16417827
cpu0->cpu0_L1D LOAD         ACCESS:  287257945 HIT:  239916035 MISS:   47341910 MSHR_MERGE:    9801989
cpu0->cpu0_L1D RFO          ACCESS:          0 HIT:          0 MISS:          0 MSHR_MERGE:          0
cpu0->cpu0_L1D PREFETCH     ACCESS:          0 HIT:          0 MISS:          0 MSHR_MERGE:          0
cpu0->cpu0_L1D WRITE        ACCESS:  115338718 HIT:  104965502 MISS:   10373216 MSHR_MERGE:    6615836
cpu0->cpu0_L1D TRANSLATION  ACCESS:     275194 HIT:     127348 MISS:     147846 MSHR_MERGE:          2
cpu0->cpu0_L1D PREFETCH REQUESTED:          0 ISSUED:          0 USEFUL:          0 USELESS:          0
cpu0->cpu0_L1D AVERAGE MISS LATENCY: 106.5 cycles
cpu0->cpu0_ITLB TOTAL        ACCESS:    3116090 HIT:    3116090 MISS:          0 MSHR_MERGE:          0
cpu0->cpu0_ITLB LOAD         ACCESS:    3116090 HIT:    3116090 MISS:          0 MSHR_MERGE:          0
cpu0->cpu0_ITLB RFO          ACCESS:          0 HIT:          0 MISS:          0 MSHR_MERGE:          0
cpu0->cpu0_ITLB PREFETCH     ACCESS:          0 HIT:          0 MISS:          0 MSHR_MERGE:          0
cpu0->cpu0_ITLB WRITE        ACCESS:          0 HIT:          0 MISS:          0 MSHR_MERGE:          0
cpu0->cpu0_ITLB TRANSLATION  ACCESS:          0 HIT:          0 MISS:          0 MSHR_MERGE:          0
cpu0->cpu0_ITLB PREFETCH REQUESTED:          0 ISSUED:          0 USEFUL:          0 USELESS:          0
cpu0->cpu0_ITLB AVERAGE MISS LATENCY: - cycles
cpu0->cpu0_DTLB TOTAL        ACCESS:  385264179 HIT:  360668968 MISS:   24595211 MSHR_MERGE:    5783500
cpu0->cpu0_DTLB LOAD         ACCESS:  385264179 HIT:  360668968 MISS:   24595211 MSHR_MERGE:    5783500
cpu0->cpu0_DTLB RFO          ACCESS:          0 HIT:          0 MISS:          0 MSHR_MERGE:          0
cpu0->cpu0_DTLB PREFETCH     ACCESS:          0 HIT:          0 MISS:          0 MSHR_MERGE:          0
cpu0->cpu0_DTLB WRITE        ACCESS:          0 HIT:          0 MISS:          0 MSHR_MERGE:          0
cpu0->cpu0_DTLB TRANSLATION  ACCESS:          0 HIT:          0 MISS:          0 MSHR_MERGE:          0
cpu0->cpu0_DTLB PREFETCH REQUESTED:          0 ISSUED:          0 USEFUL:          0 USELESS:          0
cpu0->cpu0_DTLB AVERAGE MISS LATENCY: 7.266 cycles
cpu0->LLC TOTAL        ACCESS:   31341989 HIT:   10246270 MISS:   21095719 MSHR_MERGE:          0
cpu0->LLC LOAD         ACCESS:   26342456 HIT:    8100842 MISS:   18241614 MSHR_MERGE:          0
cpu0->LLC RFO          ACCESS:    1717907 HIT:     906114 MISS:     811793 MSHR_MERGE:          0
cpu0->LLC PREFETCH     ACCESS:          0 HIT:          0 MISS:          0 MSHR_MERGE:          0
cpu0->LLC WRITE        ACCESS:    3158945 HIT:    1159717 MISS:    1999228 MSHR_MERGE:          0
cpu0->LLC TRANSLATION  ACCESS:     122681 HIT:      79597 MISS:      43084 MSHR_MERGE:          0
cpu0->LLC PREFETCH REQUESTED:          0 ISSUED:          0 USEFUL:          0 USELESS:          0
cpu0->LLC AVERAGE MISS LATENCY: 172 cycles

DRAM Statistics

Channel 0 RQ ROW_BUFFER_HIT:      92835
  ROW_BUFFER_MISS:   18958491
  AVG DBUS CONGESTED CYCLE: 17.97
Channel 0 WQ ROW_BUFFER_HIT:     644564
  ROW_BUFFER_MISS:    1397244
  FULL:          0
Channel 0 REFRESHES ISSUED:     378475
