[VMEM] WARNING: physical memory size is smaller than virtual memory size.
WARNING: option --warmup_instructions is deprecated. Use --warmup-instructions instead.
WARNING: option --simulation_instructions is deprecated. Use --simulation-instructions instead.

*** ChampSim Multicore Out-of-Order Simulator ***
Warmup Instructions: 200000000
Simulation Instructions: 1000000000
Number of CPUs: 1
Page size: 4096

Off-chip DRAM Size: 16 GiB Channels: 1 Width: 64-bit Data Rate: 3205 MT/s
Heartbeat CPU 0 instructions: 10000004 cycles: 4802791 heartbeat IPC: 2.082 cumulative IPC: 2.082 (Simulation time: 00 hr 01 min 31 sec)
Heartbeat CPU 0 instructions: 20000004 cycles: 9008665 heartbeat IPC: 2.378 cumulative IPC: 2.22 (Simulation time: 00 hr 02 min 58 sec)
Heartbeat CPU 0 instructions: 30000005 cycles: 12947377 heartbeat IPC: 2.539 cumulative IPC: 2.317 (Simulation time: 00 hr 04 min 24 sec)
Heartbeat CPU 0 instructions: 40000009 cycles: 16788553 heartbeat IPC: 2.603 cumulative IPC: 2.383 (Simulation time: 00 hr 05 min 48 sec)
Heartbeat CPU 0 instructions: 50000013 cycles: 20328993 heartbeat IPC: 2.825 cumulative IPC: 2.46 (Simulation time: 00 hr 07 min 09 sec)
Heartbeat CPU 0 instructions: 60000016 cycles: 23288797 heartbeat IPC: 3.379 cumulative IPC: 2.576 (Simulation time: 00 hr 08 min 24 sec)
Heartbeat CPU 0 instructions: 70000016 cycles: 26064314 heartbeat IPC: 3.603 cumulative IPC: 2.686 (Simulation time: 00 hr 09 min 37 sec)
Heartbeat CPU 0 instructions: 80000018 cycles: 28835882 heartbeat IPC: 3.608 cumulative IPC: 2.774 (Simulation time: 00 hr 10 min 51 sec)
Heartbeat CPU 0 instructions: 90000021 cycles: 31593791 heartbeat IPC: 3.626 cumulative IPC: 2.849 (Simulation time: 00 hr 12 min 03 sec)
Heartbeat CPU 0 instructions: 100000024 cycles: 34353433 heartbeat IPC: 3.624 cumulative IPC: 2.911 (Simulation time: 00 hr 13 min 16 sec)
Heartbeat CPU 0 instructions: 110000024 cycles: 37107527 heartbeat IPC: 3.631 cumulative IPC: 2.964 (Simulation time: 00 hr 14 min 28 sec)
Heartbeat CPU 0 instructions: 120000024 cycles: 39839936 heartbeat IPC: 3.66 cumulative IPC: 3.012 (Simulation time: 00 hr 15 min 40 sec)
Heartbeat CPU 0 instructions: 130000028 cycles: 42581481 heartbeat IPC: 3.648 cumulative IPC: 3.053 (Simulation time: 00 hr 16 min 53 sec)
Heartbeat CPU 0 instructions: 140000028 cycles: 45313718 heartbeat IPC: 3.66 cumulative IPC: 3.09 (Simulation time: 00 hr 18 min 06 sec)
Heartbeat CPU 0 instructions: 150000028 cycles: 48050784 heartbeat IPC: 3.654 cumulative IPC: 3.122 (Simulation time: 00 hr 19 min 19 sec)
Heartbeat CPU 0 instructions: 160000029 cycles: 50773971 heartbeat IPC: 3.672 cumulative IPC: 3.151 (Simulation time: 00 hr 20 min 32 sec)
Heartbeat CPU 0 instructions: 170000032 cycles: 53500386 heartbeat IPC: 3.668 cumulative IPC: 3.178 (Simulation time: 00 hr 21 min 46 sec)
Heartbeat CPU 0 instructions: 180000032 cycles: 56222706 heartbeat IPC: 3.673 cumulative IPC: 3.202 (Simulation time: 00 hr 22 min 59 sec)
Heartbeat CPU 0 instructions: 190000033 cycles: 58947560 heartbeat IPC: 3.67 cumulative IPC: 3.223 (Simulation time: 00 hr 24 min 12 sec)
Warmup finished CPU 0 instructions: 200000000 cycles: 61666643 cumulative IPC: 3.243 (Simulation time: 00 hr 25 min 25 sec)
Warmup complete CPU 0 instructions: 200000000 cycles: 61666643 cumulative IPC: 3.243 (Simulation time: 00 hr 25 min 25 sec)
Heartbeat CPU 0 instructions: 200000035 cycles: 61666650 heartbeat IPC: 3.678 cumulative IPC: 5 (Simulation time: 00 hr 25 min 25 sec)
Heartbeat CPU 0 instructions: 210000039 cycles: 89540864 heartbeat IPC: 0.3588 cumulative IPC: 0.3588 (Simulation time: 00 hr 29 min 31 sec)
Heartbeat CPU 0 instructions: 220000039 cycles: 117307892 heartbeat IPC: 0.3601 cumulative IPC: 0.3594 (Simulation time: 00 hr 33 min 35 sec)
Heartbeat CPU 0 instructions: 230000040 cycles: 144077803 heartbeat IPC: 0.3736 cumulative IPC: 0.364 (Simulation time: 00 hr 37 min 30 sec)
Heartbeat CPU 0 instructions: 240000044 cycles: 172316818 heartbeat IPC: 0.3541 cumulative IPC: 0.3615 (Simulation time: 00 hr 41 min 38 sec)
Heartbeat CPU 0 instructions: 250000044 cycles: 200652802 heartbeat IPC: 0.3529 cumulative IPC: 0.3597 (Simulation time: 00 hr 45 min 47 sec)
Heartbeat CPU 0 instructions: 260000046 cycles: 228709553 heartbeat IPC: 0.3564 cumulative IPC: 0.3592 (Simulation time: 00 hr 49 min 53 sec)
Heartbeat CPU 0 instructions: 270000050 cycles: 257236851 heartbeat IPC: 0.3505 cumulative IPC: 0.3579 (Simulation time: 00 hr 54 min 03 sec)
Heartbeat CPU 0 instructions: 280000054 cycles: 285674412 heartbeat IPC: 0.3516 cumulative IPC: 0.3571 (Simulation time: 00 hr 58 min 13 sec)
Heartbeat CPU 0 instructions: 290000056 cycles: 313936231 heartbeat IPC: 0.3538 cumulative IPC: 0.3568 (Simulation time: 01 hr 02 min 17 sec)
Heartbeat CPU 0 instructions: 300000058 cycles: 342560658 heartbeat IPC: 0.3494 cumulative IPC: 0.356 (Simulation time: 01 hr 06 min 27 sec)
Heartbeat CPU 0 instructions: 310000061 cycles: 370527020 heartbeat IPC: 0.3576 cumulative IPC: 0.3561 (Simulation time: 01 hr 10 min 32 sec)
Heartbeat CPU 0 instructions: 320000063 cycles: 398838547 heartbeat IPC: 0.3532 cumulative IPC: 0.3559 (Simulation time: 01 hr 14 min 37 sec)
Heartbeat CPU 0 instructions: 330000067 cycles: 426790889 heartbeat IPC: 0.3578 cumulative IPC: 0.356 (Simulation time: 01 hr 18 min 41 sec)
Heartbeat CPU 0 instructions: 340000067 cycles: 454999879 heartbeat IPC: 0.3545 cumulative IPC: 0.3559 (Simulation time: 01 hr 22 min 43 sec)
Heartbeat CPU 0 instructions: 350000067 cycles: 483822539 heartbeat IPC: 0.3469 cumulative IPC: 0.3553 (Simulation time: 01 hr 26 min 51 sec)
Heartbeat CPU 0 instructions: 360000069 cycles: 512479178 heartbeat IPC: 0.349 cumulative IPC: 0.3549 (Simulation time: 01 hr 30 min 53 sec)
Heartbeat CPU 0 instructions: 370000070 cycles: 540779046 heartbeat IPC: 0.3534 cumulative IPC: 0.3548 (Simulation time: 01 hr 34 min 51 sec)
Heartbeat CPU 0 instructions: 380000072 cycles: 569133541 heartbeat IPC: 0.3527 cumulative IPC: 0.3547 (Simulation time: 01 hr 38 min 52 sec)
Heartbeat CPU 0 instructions: 390000072 cycles: 596547783 heartbeat IPC: 0.3648 cumulative IPC: 0.3552 (Simulation time: 01 hr 42 min 47 sec)
Heartbeat CPU 0 instructions: 400000072 cycles: 624927223 heartbeat IPC: 0.3524 cumulative IPC: 0.3551 (Simulation time: 01 hr 46 min 47 sec)
Heartbeat CPU 0 instructions: 410000073 cycles: 653562984 heartbeat IPC: 0.3492 cumulative IPC: 0.3548 (Simulation time: 01 hr 50 min 48 sec)
Heartbeat CPU 0 instructions: 420000074 cycles: 681334931 heartbeat IPC: 0.3601 cumulative IPC: 0.355 (Simulation time: 01 hr 54 min 44 sec)
Heartbeat CPU 0 instructions: 430000074 cycles: 709908676 heartbeat IPC: 0.35 cumulative IPC: 0.3548 (Simulation time: 01 hr 58 min 43 sec)
Heartbeat CPU 0 instructions: 440000074 cycles: 737821121 heartbeat IPC: 0.3583 cumulative IPC: 0.3549 (Simulation time: 02 hr 02 min 35 sec)
Heartbeat CPU 0 instructions: 450000076 cycles: 765989850 heartbeat IPC: 0.355 cumulative IPC: 0.355 (Simulation time: 02 hr 06 min 30 sec)
Heartbeat CPU 0 instructions: 460000078 cycles: 793577563 heartbeat IPC: 0.3625 cumulative IPC: 0.3552 (Simulation time: 02 hr 10 min 22 sec)
Heartbeat CPU 0 instructions: 470000080 cycles: 821754545 heartbeat IPC: 0.3549 cumulative IPC: 0.3552 (Simulation time: 02 hr 14 min 22 sec)
Heartbeat CPU 0 instructions: 480000080 cycles: 850048370 heartbeat IPC: 0.3534 cumulative IPC: 0.3552 (Simulation time: 02 hr 18 min 24 sec)
Heartbeat CPU 0 instructions: 490000080 cycles: 877929115 heartbeat IPC: 0.3587 cumulative IPC: 0.3553 (Simulation time: 02 hr 22 min 18 sec)
Heartbeat CPU 0 instructions: 500000084 cycles: 905583689 heartbeat IPC: 0.3616 cumulative IPC: 0.3555 (Simulation time: 02 hr 26 min 10 sec)
Heartbeat CPU 0 instructions: 510000084 cycles: 933466939 heartbeat IPC: 0.3586 cumulative IPC: 0.3556 (Simulation time: 02 hr 30 min 00 sec)
Heartbeat CPU 0 instructions: 520000087 cycles: 960970178 heartbeat IPC: 0.3636 cumulative IPC: 0.3558 (Simulation time: 02 hr 33 min 46 sec)
Heartbeat CPU 0 instructions: 530000087 cycles: 989471557 heartbeat IPC: 0.3509 cumulative IPC: 0.3557 (Simulation time: 02 hr 37 min 44 sec)
Heartbeat CPU 0 instructions: 540000087 cycles: 1017177177 heartbeat IPC: 0.3609 cumulative IPC: 0.3558 (Simulation time: 02 hr 41 min 37 sec)
Heartbeat CPU 0 instructions: 550000087 cycles: 1045574632 heartbeat IPC: 0.3521 cumulative IPC: 0.3557 (Simulation time: 02 hr 45 min 37 sec)
Heartbeat CPU 0 instructions: 560000087 cycles: 1074797141 heartbeat IPC: 0.3422 cumulative IPC: 0.3553 (Simulation time: 02 hr 49 min 35 sec)
Heartbeat CPU 0 instructions: 570000088 cycles: 1102098803 heartbeat IPC: 0.3663 cumulative IPC: 0.3556 (Simulation time: 02 hr 53 min 17 sec)
Heartbeat CPU 0 instructions: 580000089 cycles: 1129507164 heartbeat IPC: 0.3649 cumulative IPC: 0.3559 (Simulation time: 02 hr 57 min 05 sec)
Heartbeat CPU 0 instructions: 590000090 cycles: 1158143645 heartbeat IPC: 0.3492 cumulative IPC: 0.3557 (Simulation time: 03 hr 01 min 07 sec)
Heartbeat CPU 0 instructions: 600000093 cycles: 1186664777 heartbeat IPC: 0.3506 cumulative IPC: 0.3556 (Simulation time: 03 hr 05 min 09 sec)
Heartbeat CPU 0 instructions: 610000095 cycles: 1214408806 heartbeat IPC: 0.3604 cumulative IPC: 0.3557 (Simulation time: 03 hr 08 min 56 sec)
Heartbeat CPU 0 instructions: 620000099 cycles: 1243922448 heartbeat IPC: 0.3388 cumulative IPC: 0.3553 (Simulation time: 03 hr 12 min 58 sec)
Heartbeat CPU 0 instructions: 630000102 cycles: 1272332853 heartbeat IPC: 0.352 cumulative IPC: 0.3552 (Simulation time: 03 hr 16 min 54 sec)
Heartbeat CPU 0 instructions: 640000103 cycles: 1300420385 heartbeat IPC: 0.356 cumulative IPC: 0.3552 (Simulation time: 03 hr 20 min 49 sec)
Heartbeat CPU 0 instructions: 650000106 cycles: 1328971780 heartbeat IPC: 0.3502 cumulative IPC: 0.3551 (Simulation time: 03 hr 24 min 50 sec)
Heartbeat CPU 0 instructions: 660000110 cycles: 1358056321 heartbeat IPC: 0.3438 cumulative IPC: 0.3548 (Simulation time: 03 hr 28 min 55 sec)
Heartbeat CPU 0 instructions: 670000114 cycles: 1386016568 heartbeat IPC: 0.3577 cumulative IPC: 0.3549 (Simulation time: 03 hr 32 min 48 sec)
Heartbeat CPU 0 instructions: 680000117 cycles: 1414456643 heartbeat IPC: 0.3516 cumulative IPC: 0.3548 (Simulation time: 03 hr 36 min 47 sec)
Heartbeat CPU 0 instructions: 690000119 cycles: 1442993061 heartbeat IPC: 0.3504 cumulative IPC: 0.3547 (Simulation time: 03 hr 40 min 42 sec)
Heartbeat CPU 0 instructions: 700000119 cycles: 1470754592 heartbeat IPC: 0.3602 cumulative IPC: 0.3548 (Simulation time: 03 hr 44 min 30 sec)
Heartbeat CPU 0 instructions: 710000123 cycles: 1498156920 heartbeat IPC: 0.3649 cumulative IPC: 0.355 (Simulation time: 03 hr 48 min 17 sec)
Heartbeat CPU 0 instructions: 720000123 cycles: 1526638453 heartbeat IPC: 0.3511 cumulative IPC: 0.355 (Simulation time: 03 hr 52 min 16 sec)
Heartbeat CPU 0 instructions: 730000123 cycles: 1555293266 heartbeat IPC: 0.349 cumulative IPC: 0.3548 (Simulation time: 03 hr 56 min 15 sec)
Heartbeat CPU 0 instructions: 740000123 cycles: 1584447148 heartbeat IPC: 0.343 cumulative IPC: 0.3546 (Simulation time: 04 hr 00 min 17 sec)
Heartbeat CPU 0 instructions: 750000124 cycles: 1612845990 heartbeat IPC: 0.3521 cumulative IPC: 0.3546 (Simulation time: 04 hr 04 min 13 sec)
Heartbeat CPU 0 instructions: 760000124 cycles: 1640240378 heartbeat IPC: 0.365 cumulative IPC: 0.3548 (Simulation time: 04 hr 08 min 02 sec)
Heartbeat CPU 0 instructions: 770000124 cycles: 1669078063 heartbeat IPC: 0.3468 cumulative IPC: 0.3546 (Simulation time: 04 hr 12 min 00 sec)
Heartbeat CPU 0 instructions: 780000125 cycles: 1697974671 heartbeat IPC: 0.3461 cumulative IPC: 0.3545 (Simulation time: 04 hr 15 min 58 sec)
Heartbeat CPU 0 instructions: 790000129 cycles: 1728534139 heartbeat IPC: 0.3272 cumulative IPC: 0.354 (Simulation time: 04 hr 20 min 13 sec)
Heartbeat CPU 0 instructions: 800000131 cycles: 1756887001 heartbeat IPC: 0.3527 cumulative IPC: 0.3539 (Simulation time: 04 hr 24 min 11 sec)
Heartbeat CPU 0 instructions: 810000131 cycles: 1785327377 heartbeat IPC: 0.3516 cumulative IPC: 0.3539 (Simulation time: 04 hr 28 min 09 sec)
Heartbeat CPU 0 instructions: 820000132 cycles: 1813415317 heartbeat IPC: 0.356 cumulative IPC: 0.3539 (Simulation time: 04 hr 32 min 04 sec)
Heartbeat CPU 0 instructions: 830000136 cycles: 1843006103 heartbeat IPC: 0.3379 cumulative IPC: 0.3537 (Simulation time: 04 hr 36 min 10 sec)
Heartbeat CPU 0 instructions: 840000139 cycles: 1872369414 heartbeat IPC: 0.3406 cumulative IPC: 0.3535 (Simulation time: 04 hr 40 min 15 sec)
Heartbeat CPU 0 instructions: 850000141 cycles: 1901212751 heartbeat IPC: 0.3467 cumulative IPC: 0.3533 (Simulation time: 04 hr 44 min 15 sec)
Heartbeat CPU 0 instructions: 860000143 cycles: 1930311983 heartbeat IPC: 0.3437 cumulative IPC: 0.3532 (Simulation time: 04 hr 48 min 16 sec)
Heartbeat CPU 0 instructions: 870000144 cycles: 1960017994 heartbeat IPC: 0.3366 cumulative IPC: 0.3529 (Simulation time: 04 hr 52 min 23 sec)
Heartbeat CPU 0 instructions: 880000145 cycles: 1987903698 heartbeat IPC: 0.3586 cumulative IPC: 0.353 (Simulation time: 04 hr 56 min 13 sec)
Heartbeat CPU 0 instructions: 890000145 cycles: 2016933044 heartbeat IPC: 0.3445 cumulative IPC: 0.3529 (Simulation time: 05 hr 00 min 14 sec)
Heartbeat CPU 0 instructions: 900000147 cycles: 2045295525 heartbeat IPC: 0.3526 cumulative IPC: 0.3529 (Simulation time: 05 hr 04 min 09 sec)
Heartbeat CPU 0 instructions: 910000149 cycles: 2073617816 heartbeat IPC: 0.3531 cumulative IPC: 0.3529 (Simulation time: 05 hr 08 min 01 sec)
Heartbeat CPU 0 instructions: 920000149 cycles: 2102262602 heartbeat IPC: 0.3491 cumulative IPC: 0.3528 (Simulation time: 05 hr 11 min 57 sec)
Heartbeat CPU 0 instructions: 930000150 cycles: 2130538572 heartbeat IPC: 0.3537 cumulative IPC: 0.3528 (Simulation time: 05 hr 15 min 48 sec)
Heartbeat CPU 0 instructions: 940000154 cycles: 2158770496 heartbeat IPC: 0.3542 cumulative IPC: 0.3529 (Simulation time: 05 hr 19 min 41 sec)
Heartbeat CPU 0 instructions: 950000154 cycles: 2187694447 heartbeat IPC: 0.3457 cumulative IPC: 0.3528 (Simulation time: 05 hr 23 min 38 sec)
Heartbeat CPU 0 instructions: 960000154 cycles: 2215821528 heartbeat IPC: 0.3555 cumulative IPC: 0.3528 (Simulation time: 05 hr 27 min 28 sec)
Heartbeat CPU 0 instructions: 970000154 cycles: 2243773206 heartbeat IPC: 0.3578 cumulative IPC: 0.3529 (Simulation time: 05 hr 31 min 17 sec)
Heartbeat CPU 0 instructions: 980000156 cycles: 2272703979 heartbeat IPC: 0.3457 cumulative IPC: 0.3528 (Simulation time: 05 hr 35 min 13 sec)
Heartbeat CPU 0 instructions: 990000157 cycles: 2300778033 heartbeat IPC: 0.3562 cumulative IPC: 0.3528 (Simulation time: 05 hr 39 min 06 sec)
Heartbeat CPU 0 instructions: 1000000161 cycles: 2328650078 heartbeat IPC: 0.3588 cumulative IPC: 0.3529 (Simulation time: 05 hr 42 min 54 sec)
Heartbeat CPU 0 instructions: 1010000161 cycles: 2357504005 heartbeat IPC: 0.3466 cumulative IPC: 0.3528 (Simulation time: 05 hr 46 min 52 sec)
Heartbeat CPU 0 instructions: 1020000163 cycles: 2385860262 heartbeat IPC: 0.3527 cumulative IPC: 0.3528 (Simulation time: 05 hr 50 min 42 sec)
Heartbeat CPU 0 instructions: 1030000163 cycles: 2415859194 heartbeat IPC: 0.3333 cumulative IPC: 0.3526 (Simulation time: 05 hr 54 min 37 sec)
Heartbeat CPU 0 instructions: 1040000167 cycles: 2444774210 heartbeat IPC: 0.3458 cumulative IPC: 0.3525 (Simulation time: 05 hr 58 min 23 sec)
Heartbeat CPU 0 instructions: 1050000170 cycles: 2473596220 heartbeat IPC: 0.347 cumulative IPC: 0.3524 (Simulation time: 06 hr 02 min 08 sec)
Heartbeat CPU 0 instructions: 1060000171 cycles: 2502466077 heartbeat IPC: 0.3464 cumulative IPC: 0.3523 (Simulation time: 06 hr 05 min 55 sec)
Heartbeat CPU 0 instructions: 1070000171 cycles: 2532026409 heartbeat IPC: 0.3383 cumulative IPC: 0.3522 (Simulation time: 06 hr 09 min 44 sec)
Heartbeat CPU 0 instructions: 1080000175 cycles: 2559982051 heartbeat IPC: 0.3577 cumulative IPC: 0.3522 (Simulation time: 06 hr 13 min 20 sec)
Heartbeat CPU 0 instructions: 1090000178 cycles: 2588227669 heartbeat IPC: 0.354 cumulative IPC: 0.3523 (Simulation time: 06 hr 17 min 03 sec)
Heartbeat CPU 0 instructions: 1100000182 cycles: 2616491763 heartbeat IPC: 0.3538 cumulative IPC: 0.3523 (Simulation time: 06 hr 20 min 42 sec)
Heartbeat CPU 0 instructions: 1110000185 cycles: 2645013829 heartbeat IPC: 0.3506 cumulative IPC: 0.3523 (Simulation time: 06 hr 24 min 24 sec)
Heartbeat CPU 0 instructions: 1120000186 cycles: 2673197003 heartbeat IPC: 0.3548 cumulative IPC: 0.3523 (Simulation time: 06 hr 28 min 03 sec)
Heartbeat CPU 0 instructions: 1130000188 cycles: 2701784423 heartbeat IPC: 0.3498 cumulative IPC: 0.3523 (Simulation time: 06 hr 31 min 44 sec)
Heartbeat CPU 0 instructions: 1140000189 cycles: 2730001545 heartbeat IPC: 0.3544 cumulative IPC: 0.3523 (Simulation time: 06 hr 35 min 25 sec)
Heartbeat CPU 0 instructions: 1150000189 cycles: 2758044396 heartbeat IPC: 0.3566 cumulative IPC: 0.3523 (Simulation time: 06 hr 39 min 03 sec)
Heartbeat CPU 0 instructions: 1160000189 cycles: 2786611813 heartbeat IPC: 0.35 cumulative IPC: 0.3523 (Simulation time: 06 hr 42 min 44 sec)
Heartbeat CPU 0 instructions: 1170000190 cycles: 2814586103 heartbeat IPC: 0.3575 cumulative IPC: 0.3524 (Simulation time: 06 hr 46 min 23 sec)
Heartbeat CPU 0 instructions: 1180000191 cycles: 2843041148 heartbeat IPC: 0.3514 cumulative IPC: 0.3523 (Simulation time: 06 hr 50 min 04 sec)
Heartbeat CPU 0 instructions: 1190000194 cycles: 2870438581 heartbeat IPC: 0.365 cumulative IPC: 0.3525 (Simulation time: 06 hr 53 min 35 sec)
Simulation finished CPU 0 instructions: 1000000000 cycles: 2837971900 cumulative IPC: 0.3524 (Simulation time: 06 hr 57 min 23 sec)
Simulation complete CPU 0 instructions: 1000000000 cycles: 2837971900 cumulative IPC: 0.3524 (Simulation time: 06 hr 57 min 23 sec)

ChampSim completed all CPUs

=== Simulation ===
CPU 0 runs /home/faculty/p/pgratz/dpc3_traces/620.omnetpp_s-874B.champsimtrace.xz

Region of Interest Statistics

CPU 0 cumulative IPC: 0.3524 instructions: 1000000000 cycles: 2837971900
CPU 0 Branch Prediction Accuracy: 94.05% MPKI: 12.37 Average ROB Occupancy at Mispredict: 51.7
Branch type MPKI
BRANCH_DIRECT_JUMP: 0.9271
BRANCH_INDIRECT: 0.1242
BRANCH_CONDITIONAL: 10.2
BRANCH_DIRECT_CALL: 7e-06
BRANCH_INDIRECT_CALL: 0.7289
BRANCH_RETURN: 0.3946

cpu0->cpu0_STLB TOTAL        ACCESS:   20783996 HIT:   16491310 MISS:    4292686 MSHR_MERGE:          0
cpu0->cpu0_STLB LOAD         ACCESS:   20783996 HIT:   16491310 MISS:    4292686 MSHR_MERGE:          0
cpu0->cpu0_STLB RFO          ACCESS:          0 HIT:          0 MISS:          0 MSHR_MERGE:          0
cpu0->cpu0_STLB PREFETCH     ACCESS:          0 HIT:          0 MISS:          0 MSHR_MERGE:          0
cpu0->cpu0_STLB WRITE        ACCESS:          0 HIT:          0 MISS:          0 MSHR_MERGE:          0
cpu0->cpu0_STLB TRANSLATION  ACCESS:          0 HIT:          0 MISS:          0 MSHR_MERGE:          0
cpu0->cpu0_STLB PREFETCH REQUESTED:          0 ISSUED:          0 USEFUL:          0 USELESS:          0
cpu0->cpu0_STLB AVERAGE MISS LATENCY: 203.8 cycles
cpu0->cpu0_L2C TOTAL        ACCESS:   33904149 HIT:   16841495 MISS:   17062654 MSHR_MERGE:          0
cpu0->cpu0_L2C LOAD         ACCESS:   16948427 HIT:    5645308 MISS:   11303119 MSHR_MERGE:          0
cpu0->cpu0_L2C RFO          ACCESS:    2567436 HIT:     799509 MISS:    1767927 MSHR_MERGE:          0
cpu0->cpu0_L2C PREFETCH     ACCESS:          0 HIT:          0 MISS:          0 MSHR_MERGE:          0
cpu0->cpu0_L2C WRITE        ACCESS:    9407726 HIT:    9393684 MISS:      14042 MSHR_MERGE:          0
cpu0->cpu0_L2C TRANSLATION  ACCESS:    4980560 HIT:    1002994 MISS:    3977566 MSHR_MERGE:          0
cpu0->cpu0_L2C PREFETCH REQUESTED:          0 ISSUED:          0 USEFUL:          0 USELESS:          0
cpu0->cpu0_L2C AVERAGE MISS LATENCY: 184.4 cycles
cpu0->cpu0_L1I TOTAL        ACCESS:  138995976 HIT:  138489730 MISS:     506246 MSHR_MERGE:     124278
cpu0->cpu0_L1I LOAD         ACCESS:  138995976 HIT:  138489730 MISS:     506246 MSHR_MERGE:     124278
cpu0->cpu0_L1I RFO          ACCESS:          0 HIT:          0 MISS:          0 MSHR_MERGE:          0
cpu0->cpu0_L1I PREFETCH     ACCESS:          0 HIT:          0 MISS:          0 MSHR_MERGE:          0
cpu0->cpu0_L1I WRITE        ACCESS:          0 HIT:          0 MISS:          0 MSHR_MERGE:          0
cpu0->cpu0_L1I TRANSLATION  ACCESS:          0 HIT:          0 MISS:          0 MSHR_MERGE:          0
cpu0->cpu0_L1I PREFETCH REQUESTED:          0 ISSUED:          0 USEFUL:          0 USELESS:          0
cpu0->cpu0_L1I AVERAGE MISS LATENCY: 24.01 cycles
cpu0->cpu0_L1D TOTAL        ACCESS:  398427596 HIT:  364640784 MISS:   33786812 MSHR_MERGE:    9672316
cpu0->cpu0_L1D LOAD         ACCESS:  210171788 HIT:  188679777 MISS:   21492011 MSHR_MERGE:    4925525
cpu0->cpu0_L1D RFO          ACCESS:          0 HIT:          0 MISS:          0 MSHR_MERGE:          0
cpu0->cpu0_L1D PREFETCH     ACCESS:          0 HIT:          0 MISS:          0 MSHR_MERGE:          0
cpu0->cpu0_L1D WRITE        ACCESS:  182307803 HIT:  174995333 MISS:    7312470 MSHR_MERGE:    4745020
cpu0->cpu0_L1D TRANSLATION  ACCESS:    5948005 HIT:     965674 MISS:    4982331 MSHR_MERGE:       1771
cpu0->cpu0_L1D PREFETCH REQUESTED:          0 ISSUED:          0 USEFUL:          0 USELESS:          0
cpu0->cpu0_L1D AVERAGE MISS LATENCY: 139 cycles
cpu0->cpu0_ITLB TOTAL        ACCESS:  122707723 HIT:  119698522 MISS:    3009201 MSHR_MERGE:    1439868
cpu0->cpu0_ITLB LOAD         ACCESS:  122707723 HIT:  119698522 MISS:    3009201 MSHR_MERGE:    1439868
cpu0->cpu0_ITLB RFO          ACCESS:          0 HIT:          0 MISS:          0 MSHR_MERGE:          0
cpu0->cpu0_ITLB PREFETCH     ACCESS:          0 HIT:          0 MISS:          0 MSHR_MERGE:          0
cpu0->cpu0_ITLB WRITE        ACCESS:          0 HIT:          0 MISS:          0 MSHR_MERGE:          0
cpu0->cpu0_ITLB TRANSLATION  ACCESS:          0 HIT:          0 MISS:          0 MSHR_MERGE:          0
cpu0->cpu0_ITLB PREFETCH REQUESTED:          0 ISSUED:          0 USEFUL:          0 USELESS:          0
cpu0->cpu0_ITLB AVERAGE MISS LATENCY: 6.76 cycles
cpu0->cpu0_DTLB TOTAL        ACCESS:  370935279 HIT:  348402605 MISS:   22532674 MSHR_MERGE:    3318011
cpu0->cpu0_DTLB LOAD         ACCESS:  370935279 HIT:  348402605 MISS:   22532674 MSHR_MERGE:    3318011
cpu0->cpu0_DTLB RFO          ACCESS:          0 HIT:          0 MISS:          0 MSHR_MERGE:          0
cpu0->cpu0_DTLB PREFETCH     ACCESS:          0 HIT:          0 MISS:          0 MSHR_MERGE:          0
cpu0->cpu0_DTLB WRITE        ACCESS:          0 HIT:          0 MISS:          0 MSHR_MERGE:          0
cpu0->cpu0_DTLB TRANSLATION  ACCESS:          0 HIT:          0 MISS:          0 MSHR_MERGE:          0
cpu0->cpu0_DTLB PREFETCH REQUESTED:          0 ISSUED:          0 USEFUL:          0 USELESS:          0
cpu0->cpu0_DTLB AVERAGE MISS LATENCY: 50.6 cycles
cpu0->LLC TOTAL        ACCESS:   23569671 HIT:    3026018 MISS:   20543653 MSHR_MERGE:          0
cpu0->LLC LOAD         ACCESS:   11303119 HIT:    1601371 MISS:    9701748 MSHR_MERGE:          0
cpu0->LLC RFO          ACCESS:    1767927 HIT:     285764 MISS:    1482163 MSHR_MERGE:          0
cpu0->LLC PREFETCH     ACCESS:          0 HIT:          0 MISS:          0 MSHR_MERGE:          0
cpu0->LLC WRITE        ACCESS:    6521059 HIT:     916252 MISS:    5604807 MSHR_MERGE:          0
cpu0->LLC TRANSLATION  ACCESS:    3977566 HIT:     222631 MISS:    3754935 MSHR_MERGE:          0
cpu0->LLC PREFETCH REQUESTED:          0 ISSUED:          0 USEFUL:          0 USELESS:          0
cpu0->LLC AVERAGE MISS LATENCY: 142.5 cycles

DRAM Statistics

Channel 0 RQ ROW_BUFFER_HIT:     102071
  ROW_BUFFER_MISS:   14832905
  AVG DBUS CONGESTED CYCLE: 18.43
Channel 0 WQ ROW_BUFFER_HIT:    2033451
  ROW_BUFFER_MISS:    3597010
  FULL:          0
Channel 0 REFRESHES ISSUED:     236498
