[VMEM] WARNING: physical memory size is smaller than virtual memory size.
WARNING: option --warmup_instructions is deprecated. Use --warmup-instructions instead.
WARNING: option --simulation_instructions is deprecated. Use --simulation-instructions instead.

*** ChampSim Multicore Out-of-Order Simulator ***
Warmup Instructions: 200000000
Simulation Instructions: 1000000000
Number of CPUs: 1
Page size: 4096

Off-chip DRAM Size: 16 GiB Channels: 1 Width: 64-bit Data Rate: 3205 MT/s
Heartbeat CPU 0 instructions: 10000001 cycles: 3126752 heartbeat IPC: 3.198 cumulative IPC: 3.198 (Simulation time: 00 hr 00 min 57 sec)
Heartbeat CPU 0 instructions: 20000001 cycles: 6254212 heartbeat IPC: 3.197 cumulative IPC: 3.198 (Simulation time: 00 hr 01 min 55 sec)
Heartbeat CPU 0 instructions: 30000003 cycles: 9361960 heartbeat IPC: 3.218 cumulative IPC: 3.204 (Simulation time: 00 hr 02 min 52 sec)
Heartbeat CPU 0 instructions: 40000004 cycles: 12485532 heartbeat IPC: 3.201 cumulative IPC: 3.204 (Simulation time: 00 hr 03 min 49 sec)
Heartbeat CPU 0 instructions: 50000004 cycles: 15604659 heartbeat IPC: 3.206 cumulative IPC: 3.204 (Simulation time: 00 hr 04 min 47 sec)
Heartbeat CPU 0 instructions: 60000005 cycles: 18740905 heartbeat IPC: 3.189 cumulative IPC: 3.202 (Simulation time: 00 hr 05 min 44 sec)
Heartbeat CPU 0 instructions: 70000007 cycles: 21816776 heartbeat IPC: 3.251 cumulative IPC: 3.209 (Simulation time: 00 hr 06 min 40 sec)
Heartbeat CPU 0 instructions: 80000008 cycles: 24948537 heartbeat IPC: 3.193 cumulative IPC: 3.207 (Simulation time: 00 hr 07 min 38 sec)
Heartbeat CPU 0 instructions: 90000008 cycles: 28038327 heartbeat IPC: 3.236 cumulative IPC: 3.21 (Simulation time: 00 hr 08 min 37 sec)
Heartbeat CPU 0 instructions: 100000011 cycles: 31076799 heartbeat IPC: 3.291 cumulative IPC: 3.218 (Simulation time: 00 hr 09 min 33 sec)
Heartbeat CPU 0 instructions: 110000012 cycles: 34112230 heartbeat IPC: 3.294 cumulative IPC: 3.225 (Simulation time: 00 hr 10 min 29 sec)
Heartbeat CPU 0 instructions: 120000016 cycles: 37109620 heartbeat IPC: 3.336 cumulative IPC: 3.234 (Simulation time: 00 hr 11 min 25 sec)
Heartbeat CPU 0 instructions: 130000017 cycles: 40229534 heartbeat IPC: 3.205 cumulative IPC: 3.231 (Simulation time: 00 hr 12 min 23 sec)
Heartbeat CPU 0 instructions: 140000020 cycles: 43293739 heartbeat IPC: 3.263 cumulative IPC: 3.234 (Simulation time: 00 hr 13 min 20 sec)
Heartbeat CPU 0 instructions: 150000020 cycles: 46267693 heartbeat IPC: 3.363 cumulative IPC: 3.242 (Simulation time: 00 hr 14 min 16 sec)
Heartbeat CPU 0 instructions: 160000020 cycles: 49347530 heartbeat IPC: 3.247 cumulative IPC: 3.242 (Simulation time: 00 hr 15 min 13 sec)
Heartbeat CPU 0 instructions: 170000022 cycles: 52405760 heartbeat IPC: 3.27 cumulative IPC: 3.244 (Simulation time: 00 hr 16 min 10 sec)
Heartbeat CPU 0 instructions: 180000024 cycles: 55489480 heartbeat IPC: 3.243 cumulative IPC: 3.244 (Simulation time: 00 hr 17 min 08 sec)
Heartbeat CPU 0 instructions: 190000028 cycles: 58635294 heartbeat IPC: 3.179 cumulative IPC: 3.24 (Simulation time: 00 hr 18 min 06 sec)
Warmup finished CPU 0 instructions: 200000003 cycles: 61774601 cumulative IPC: 3.238 (Simulation time: 00 hr 19 min 05 sec)
Warmup complete CPU 0 instructions: 200000003 cycles: 61774601 cumulative IPC: 3.238 (Simulation time: 00 hr 19 min 05 sec)
Heartbeat CPU 0 instructions: 200000031 cycles: 61774608 heartbeat IPC: 3.185 cumulative IPC: 4 (Simulation time: 00 hr 19 min 05 sec)
Heartbeat CPU 0 instructions: 210000031 cycles: 69050460 heartbeat IPC: 1.374 cumulative IPC: 1.374 (Simulation time: 00 hr 20 min 22 sec)
Heartbeat CPU 0 instructions: 220000035 cycles: 76499488 heartbeat IPC: 1.342 cumulative IPC: 1.358 (Simulation time: 00 hr 21 min 41 sec)
Heartbeat CPU 0 instructions: 230000035 cycles: 83998189 heartbeat IPC: 1.334 cumulative IPC: 1.35 (Simulation time: 00 hr 22 min 59 sec)
Heartbeat CPU 0 instructions: 240000038 cycles: 91229282 heartbeat IPC: 1.383 cumulative IPC: 1.358 (Simulation time: 00 hr 24 min 18 sec)
Heartbeat CPU 0 instructions: 250000041 cycles: 98414243 heartbeat IPC: 1.392 cumulative IPC: 1.365 (Simulation time: 00 hr 25 min 38 sec)
Heartbeat CPU 0 instructions: 260000042 cycles: 105683045 heartbeat IPC: 1.376 cumulative IPC: 1.366 (Simulation time: 00 hr 26 min 54 sec)
Heartbeat CPU 0 instructions: 270000046 cycles: 112876973 heartbeat IPC: 1.39 cumulative IPC: 1.37 (Simulation time: 00 hr 28 min 11 sec)
Heartbeat CPU 0 instructions: 280000047 cycles: 120263449 heartbeat IPC: 1.354 cumulative IPC: 1.368 (Simulation time: 00 hr 29 min 29 sec)
Heartbeat CPU 0 instructions: 290000050 cycles: 127608565 heartbeat IPC: 1.361 cumulative IPC: 1.367 (Simulation time: 00 hr 30 min 48 sec)
Heartbeat CPU 0 instructions: 300000050 cycles: 134826718 heartbeat IPC: 1.385 cumulative IPC: 1.369 (Simulation time: 00 hr 32 min 08 sec)
Heartbeat CPU 0 instructions: 310000053 cycles: 142192117 heartbeat IPC: 1.358 cumulative IPC: 1.368 (Simulation time: 00 hr 33 min 26 sec)
Heartbeat CPU 0 instructions: 320000057 cycles: 149418221 heartbeat IPC: 1.384 cumulative IPC: 1.369 (Simulation time: 00 hr 34 min 45 sec)
Heartbeat CPU 0 instructions: 330000061 cycles: 156801058 heartbeat IPC: 1.354 cumulative IPC: 1.368 (Simulation time: 00 hr 36 min 04 sec)
Heartbeat CPU 0 instructions: 340000061 cycles: 164017485 heartbeat IPC: 1.386 cumulative IPC: 1.369 (Simulation time: 00 hr 37 min 21 sec)
Heartbeat CPU 0 instructions: 350000061 cycles: 171187828 heartbeat IPC: 1.395 cumulative IPC: 1.371 (Simulation time: 00 hr 38 min 39 sec)
Heartbeat CPU 0 instructions: 360000062 cycles: 178339262 heartbeat IPC: 1.398 cumulative IPC: 1.373 (Simulation time: 00 hr 39 min 57 sec)
Heartbeat CPU 0 instructions: 370000062 cycles: 185607519 heartbeat IPC: 1.376 cumulative IPC: 1.373 (Simulation time: 00 hr 41 min 16 sec)
Heartbeat CPU 0 instructions: 380000062 cycles: 192669905 heartbeat IPC: 1.416 cumulative IPC: 1.375 (Simulation time: 00 hr 42 min 34 sec)
Heartbeat CPU 0 instructions: 390000066 cycles: 199868933 heartbeat IPC: 1.389 cumulative IPC: 1.376 (Simulation time: 00 hr 43 min 54 sec)
Heartbeat CPU 0 instructions: 400000067 cycles: 207051226 heartbeat IPC: 1.392 cumulative IPC: 1.377 (Simulation time: 00 hr 45 min 11 sec)
Heartbeat CPU 0 instructions: 410000067 cycles: 214497428 heartbeat IPC: 1.343 cumulative IPC: 1.375 (Simulation time: 00 hr 46 min 30 sec)
Heartbeat CPU 0 instructions: 420000067 cycles: 221694441 heartbeat IPC: 1.389 cumulative IPC: 1.376 (Simulation time: 00 hr 47 min 49 sec)
Heartbeat CPU 0 instructions: 430000067 cycles: 228752176 heartbeat IPC: 1.417 cumulative IPC: 1.377 (Simulation time: 00 hr 49 min 07 sec)
Heartbeat CPU 0 instructions: 440000070 cycles: 235935904 heartbeat IPC: 1.392 cumulative IPC: 1.378 (Simulation time: 00 hr 50 min 26 sec)
Heartbeat CPU 0 instructions: 450000073 cycles: 243223439 heartbeat IPC: 1.372 cumulative IPC: 1.378 (Simulation time: 00 hr 51 min 45 sec)
Heartbeat CPU 0 instructions: 460000073 cycles: 250631355 heartbeat IPC: 1.35 cumulative IPC: 1.377 (Simulation time: 00 hr 53 min 05 sec)
Heartbeat CPU 0 instructions: 470000073 cycles: 257830658 heartbeat IPC: 1.389 cumulative IPC: 1.377 (Simulation time: 00 hr 54 min 23 sec)
Heartbeat CPU 0 instructions: 480000076 cycles: 265112784 heartbeat IPC: 1.373 cumulative IPC: 1.377 (Simulation time: 00 hr 55 min 42 sec)
Heartbeat CPU 0 instructions: 490000079 cycles: 272233747 heartbeat IPC: 1.404 cumulative IPC: 1.378 (Simulation time: 00 hr 56 min 59 sec)
Heartbeat CPU 0 instructions: 500000083 cycles: 279376415 heartbeat IPC: 1.4 cumulative IPC: 1.379 (Simulation time: 00 hr 58 min 16 sec)
Heartbeat CPU 0 instructions: 510000084 cycles: 286416943 heartbeat IPC: 1.42 cumulative IPC: 1.38 (Simulation time: 00 hr 59 min 35 sec)
Heartbeat CPU 0 instructions: 520000087 cycles: 293506970 heartbeat IPC: 1.41 cumulative IPC: 1.381 (Simulation time: 01 hr 00 min 54 sec)
Heartbeat CPU 0 instructions: 530000091 cycles: 300610503 heartbeat IPC: 1.408 cumulative IPC: 1.382 (Simulation time: 01 hr 02 min 12 sec)
Heartbeat CPU 0 instructions: 540000093 cycles: 307683067 heartbeat IPC: 1.414 cumulative IPC: 1.383 (Simulation time: 01 hr 03 min 30 sec)
Heartbeat CPU 0 instructions: 550000093 cycles: 314720169 heartbeat IPC: 1.421 cumulative IPC: 1.384 (Simulation time: 01 hr 04 min 47 sec)
Heartbeat CPU 0 instructions: 560000097 cycles: 321748030 heartbeat IPC: 1.423 cumulative IPC: 1.385 (Simulation time: 01 hr 06 min 04 sec)
Heartbeat CPU 0 instructions: 570000097 cycles: 328634170 heartbeat IPC: 1.452 cumulative IPC: 1.386 (Simulation time: 01 hr 07 min 21 sec)
Heartbeat CPU 0 instructions: 580000097 cycles: 335677489 heartbeat IPC: 1.42 cumulative IPC: 1.387 (Simulation time: 01 hr 08 min 40 sec)
Heartbeat CPU 0 instructions: 590000099 cycles: 343050456 heartbeat IPC: 1.356 cumulative IPC: 1.387 (Simulation time: 01 hr 10 min 01 sec)
Heartbeat CPU 0 instructions: 600000102 cycles: 350231640 heartbeat IPC: 1.393 cumulative IPC: 1.387 (Simulation time: 01 hr 11 min 19 sec)
Heartbeat CPU 0 instructions: 610000104 cycles: 357583909 heartbeat IPC: 1.36 cumulative IPC: 1.386 (Simulation time: 01 hr 12 min 39 sec)
Heartbeat CPU 0 instructions: 620000104 cycles: 364727141 heartbeat IPC: 1.4 cumulative IPC: 1.386 (Simulation time: 01 hr 13 min 58 sec)
Heartbeat CPU 0 instructions: 630000105 cycles: 371880204 heartbeat IPC: 1.398 cumulative IPC: 1.387 (Simulation time: 01 hr 15 min 17 sec)
Heartbeat CPU 0 instructions: 640000106 cycles: 378968031 heartbeat IPC: 1.411 cumulative IPC: 1.387 (Simulation time: 01 hr 16 min 34 sec)
Heartbeat CPU 0 instructions: 650000106 cycles: 386110876 heartbeat IPC: 1.4 cumulative IPC: 1.387 (Simulation time: 01 hr 17 min 50 sec)
Heartbeat CPU 0 instructions: 660000106 cycles: 393166539 heartbeat IPC: 1.417 cumulative IPC: 1.388 (Simulation time: 01 hr 19 min 08 sec)
Heartbeat CPU 0 instructions: 670000108 cycles: 399989496 heartbeat IPC: 1.466 cumulative IPC: 1.39 (Simulation time: 01 hr 20 min 23 sec)
Heartbeat CPU 0 instructions: 680000112 cycles: 406926332 heartbeat IPC: 1.442 cumulative IPC: 1.391 (Simulation time: 01 hr 21 min 40 sec)
Heartbeat CPU 0 instructions: 690000112 cycles: 414225813 heartbeat IPC: 1.37 cumulative IPC: 1.39 (Simulation time: 01 hr 22 min 58 sec)
Heartbeat CPU 0 instructions: 700000116 cycles: 421487557 heartbeat IPC: 1.377 cumulative IPC: 1.39 (Simulation time: 01 hr 24 min 16 sec)
Heartbeat CPU 0 instructions: 710000119 cycles: 428497168 heartbeat IPC: 1.427 cumulative IPC: 1.391 (Simulation time: 01 hr 25 min 32 sec)
Heartbeat CPU 0 instructions: 720000121 cycles: 435393575 heartbeat IPC: 1.45 cumulative IPC: 1.392 (Simulation time: 01 hr 26 min 49 sec)
Heartbeat CPU 0 instructions: 730000121 cycles: 442422868 heartbeat IPC: 1.423 cumulative IPC: 1.392 (Simulation time: 01 hr 28 min 05 sec)
Heartbeat CPU 0 instructions: 740000125 cycles: 449359666 heartbeat IPC: 1.442 cumulative IPC: 1.393 (Simulation time: 01 hr 29 min 21 sec)
Heartbeat CPU 0 instructions: 750000128 cycles: 456632553 heartbeat IPC: 1.375 cumulative IPC: 1.393 (Simulation time: 01 hr 30 min 40 sec)
Heartbeat CPU 0 instructions: 760000128 cycles: 463791255 heartbeat IPC: 1.397 cumulative IPC: 1.393 (Simulation time: 01 hr 31 min 56 sec)
Heartbeat CPU 0 instructions: 770000128 cycles: 471003387 heartbeat IPC: 1.387 cumulative IPC: 1.393 (Simulation time: 01 hr 33 min 15 sec)
Heartbeat CPU 0 instructions: 780000132 cycles: 478366281 heartbeat IPC: 1.358 cumulative IPC: 1.392 (Simulation time: 01 hr 34 min 35 sec)
Heartbeat CPU 0 instructions: 790000133 cycles: 485528233 heartbeat IPC: 1.396 cumulative IPC: 1.392 (Simulation time: 01 hr 35 min 53 sec)
Heartbeat CPU 0 instructions: 800000134 cycles: 492584688 heartbeat IPC: 1.417 cumulative IPC: 1.393 (Simulation time: 01 hr 37 min 10 sec)
Heartbeat CPU 0 instructions: 810000136 cycles: 499664735 heartbeat IPC: 1.412 cumulative IPC: 1.393 (Simulation time: 01 hr 38 min 27 sec)
Heartbeat CPU 0 instructions: 820000139 cycles: 506599464 heartbeat IPC: 1.442 cumulative IPC: 1.394 (Simulation time: 01 hr 39 min 44 sec)
Heartbeat CPU 0 instructions: 830000141 cycles: 513647837 heartbeat IPC: 1.419 cumulative IPC: 1.394 (Simulation time: 01 hr 41 min 02 sec)
Heartbeat CPU 0 instructions: 840000142 cycles: 520512841 heartbeat IPC: 1.457 cumulative IPC: 1.395 (Simulation time: 01 hr 42 min 17 sec)
Heartbeat CPU 0 instructions: 850000143 cycles: 527759945 heartbeat IPC: 1.38 cumulative IPC: 1.395 (Simulation time: 01 hr 43 min 34 sec)
Heartbeat CPU 0 instructions: 860000143 cycles: 534829067 heartbeat IPC: 1.415 cumulative IPC: 1.395 (Simulation time: 01 hr 44 min 51 sec)
Heartbeat CPU 0 instructions: 870000145 cycles: 541729970 heartbeat IPC: 1.449 cumulative IPC: 1.396 (Simulation time: 01 hr 46 min 08 sec)
Heartbeat CPU 0 instructions: 880000148 cycles: 548887730 heartbeat IPC: 1.397 cumulative IPC: 1.396 (Simulation time: 01 hr 47 min 26 sec)
Heartbeat CPU 0 instructions: 890000152 cycles: 556074081 heartbeat IPC: 1.392 cumulative IPC: 1.396 (Simulation time: 01 hr 48 min 43 sec)
Heartbeat CPU 0 instructions: 900000152 cycles: 563267687 heartbeat IPC: 1.39 cumulative IPC: 1.396 (Simulation time: 01 hr 50 min 01 sec)
Heartbeat CPU 0 instructions: 910000154 cycles: 570414972 heartbeat IPC: 1.399 cumulative IPC: 1.396 (Simulation time: 01 hr 51 min 18 sec)
Heartbeat CPU 0 instructions: 920000156 cycles: 577451903 heartbeat IPC: 1.421 cumulative IPC: 1.396 (Simulation time: 01 hr 52 min 35 sec)
Heartbeat CPU 0 instructions: 930000156 cycles: 584538775 heartbeat IPC: 1.411 cumulative IPC: 1.396 (Simulation time: 01 hr 53 min 52 sec)
Heartbeat CPU 0 instructions: 940000156 cycles: 591333459 heartbeat IPC: 1.472 cumulative IPC: 1.397 (Simulation time: 01 hr 55 min 08 sec)
Heartbeat CPU 0 instructions: 950000156 cycles: 598228824 heartbeat IPC: 1.45 cumulative IPC: 1.398 (Simulation time: 01 hr 56 min 24 sec)
Heartbeat CPU 0 instructions: 960000156 cycles: 605178383 heartbeat IPC: 1.439 cumulative IPC: 1.399 (Simulation time: 01 hr 57 min 40 sec)
Heartbeat CPU 0 instructions: 970000156 cycles: 612213867 heartbeat IPC: 1.421 cumulative IPC: 1.399 (Simulation time: 01 hr 58 min 59 sec)
Heartbeat CPU 0 instructions: 980000156 cycles: 619322254 heartbeat IPC: 1.407 cumulative IPC: 1.399 (Simulation time: 02 hr 00 min 19 sec)
Heartbeat CPU 0 instructions: 990000156 cycles: 626235566 heartbeat IPC: 1.446 cumulative IPC: 1.4 (Simulation time: 02 hr 01 min 37 sec)
Heartbeat CPU 0 instructions: 1000000158 cycles: 633623352 heartbeat IPC: 1.354 cumulative IPC: 1.399 (Simulation time: 02 hr 02 min 57 sec)
Heartbeat CPU 0 instructions: 1010000158 cycles: 640664751 heartbeat IPC: 1.42 cumulative IPC: 1.399 (Simulation time: 02 hr 04 min 16 sec)
Heartbeat CPU 0 instructions: 1020000158 cycles: 647792783 heartbeat IPC: 1.403 cumulative IPC: 1.399 (Simulation time: 02 hr 05 min 37 sec)
Heartbeat CPU 0 instructions: 1030000159 cycles: 655008059 heartbeat IPC: 1.386 cumulative IPC: 1.399 (Simulation time: 02 hr 06 min 59 sec)
Heartbeat CPU 0 instructions: 1040000163 cycles: 662131583 heartbeat IPC: 1.404 cumulative IPC: 1.399 (Simulation time: 02 hr 08 min 19 sec)
Heartbeat CPU 0 instructions: 1050000166 cycles: 669152945 heartbeat IPC: 1.424 cumulative IPC: 1.399 (Simulation time: 02 hr 09 min 39 sec)
Heartbeat CPU 0 instructions: 1060000168 cycles: 676379581 heartbeat IPC: 1.384 cumulative IPC: 1.399 (Simulation time: 02 hr 11 min 01 sec)
Heartbeat CPU 0 instructions: 1070000171 cycles: 683484743 heartbeat IPC: 1.407 cumulative IPC: 1.399 (Simulation time: 02 hr 12 min 23 sec)
Heartbeat CPU 0 instructions: 1080000171 cycles: 690550002 heartbeat IPC: 1.415 cumulative IPC: 1.4 (Simulation time: 02 hr 13 min 45 sec)
Heartbeat CPU 0 instructions: 1090000171 cycles: 697744668 heartbeat IPC: 1.39 cumulative IPC: 1.399 (Simulation time: 02 hr 15 min 07 sec)
Heartbeat CPU 0 instructions: 1100000171 cycles: 704806919 heartbeat IPC: 1.416 cumulative IPC: 1.4 (Simulation time: 02 hr 16 min 29 sec)
Heartbeat CPU 0 instructions: 1110000172 cycles: 712043206 heartbeat IPC: 1.382 cumulative IPC: 1.399 (Simulation time: 02 hr 17 min 53 sec)
Heartbeat CPU 0 instructions: 1120000173 cycles: 719327920 heartbeat IPC: 1.373 cumulative IPC: 1.399 (Simulation time: 02 hr 19 min 16 sec)
Heartbeat CPU 0 instructions: 1130000174 cycles: 726561847 heartbeat IPC: 1.382 cumulative IPC: 1.399 (Simulation time: 02 hr 20 min 39 sec)
Heartbeat CPU 0 instructions: 1140000177 cycles: 733737623 heartbeat IPC: 1.394 cumulative IPC: 1.399 (Simulation time: 02 hr 22 min 02 sec)
Heartbeat CPU 0 instructions: 1150000179 cycles: 741094724 heartbeat IPC: 1.359 cumulative IPC: 1.398 (Simulation time: 02 hr 23 min 27 sec)
Heartbeat CPU 0 instructions: 1160000180 cycles: 748457883 heartbeat IPC: 1.358 cumulative IPC: 1.398 (Simulation time: 02 hr 24 min 50 sec)
Heartbeat CPU 0 instructions: 1170000181 cycles: 755740345 heartbeat IPC: 1.373 cumulative IPC: 1.398 (Simulation time: 02 hr 26 min 10 sec)
Heartbeat CPU 0 instructions: 1180000183 cycles: 763062920 heartbeat IPC: 1.366 cumulative IPC: 1.397 (Simulation time: 02 hr 27 min 33 sec)
Heartbeat CPU 0 instructions: 1190000185 cycles: 770340427 heartbeat IPC: 1.374 cumulative IPC: 1.397 (Simulation time: 02 hr 28 min 56 sec)
Simulation finished CPU 0 instructions: 1000000000 cycles: 715580309 cumulative IPC: 1.397 (Simulation time: 02 hr 30 min 17 sec)
Simulation complete CPU 0 instructions: 1000000000 cycles: 715580309 cumulative IPC: 1.397 (Simulation time: 02 hr 30 min 17 sec)

ChampSim completed all CPUs

=== Simulation ===
CPU 0 runs /home/faculty/p/pgratz/dpc3_traces/631.deepsjeng_s-928B.champsimtrace.xz

Region of Interest Statistics

CPU 0 cumulative IPC: 1.397 instructions: 1000000000 cycles: 715580309
CPU 0 Branch Prediction Accuracy: 89.73% MPKI: 15.18 Average ROB Occupancy at Mispredict: 31.84
Branch type MPKI
BRANCH_DIRECT_JUMP: 0.02052
BRANCH_INDIRECT: 0.009483
BRANCH_CONDITIONAL: 14.67
BRANCH_DIRECT_CALL: 0.01892
BRANCH_INDIRECT_CALL: 0
BRANCH_RETURN: 0.4582

cpu0->cpu0_STLB TOTAL        ACCESS:     266445 HIT:      94792 MISS:     171653 MSHR_MERGE:          0
cpu0->cpu0_STLB LOAD         ACCESS:     266445 HIT:      94792 MISS:     171653 MSHR_MERGE:          0
cpu0->cpu0_STLB RFO          ACCESS:          0 HIT:          0 MISS:          0 MSHR_MERGE:          0
cpu0->cpu0_STLB PREFETCH     ACCESS:          0 HIT:          0 MISS:          0 MSHR_MERGE:          0
cpu0->cpu0_STLB WRITE        ACCESS:          0 HIT:          0 MISS:          0 MSHR_MERGE:          0
cpu0->cpu0_STLB TRANSLATION  ACCESS:          0 HIT:          0 MISS:          0 MSHR_MERGE:          0
cpu0->cpu0_STLB PREFETCH REQUESTED:          0 ISSUED:          0 USEFUL:          0 USELESS:          0
cpu0->cpu0_STLB AVERAGE MISS LATENCY: 600.1 cycles
cpu0->cpu0_L2C TOTAL        ACCESS:    2533490 HIT:    1993923 MISS:     539567 MSHR_MERGE:          0
cpu0->cpu0_L2C LOAD         ACCESS:    1484933 HIT:    1198829 MISS:     286104 MSHR_MERGE:          0
cpu0->cpu0_L2C RFO          ACCESS:     244406 HIT:     231666 MISS:      12740 MSHR_MERGE:          0
cpu0->cpu0_L2C PREFETCH     ACCESS:          0 HIT:          0 MISS:          0 MSHR_MERGE:          0
cpu0->cpu0_L2C WRITE        ACCESS:     476572 HIT:     475589 MISS:        983 MSHR_MERGE:          0
cpu0->cpu0_L2C TRANSLATION  ACCESS:     327579 HIT:      87839 MISS:     239740 MSHR_MERGE:          0
cpu0->cpu0_L2C PREFETCH REQUESTED:          0 ISSUED:          0 USEFUL:          0 USELESS:          0
cpu0->cpu0_L2C AVERAGE MISS LATENCY: 170.8 cycles
cpu0->cpu0_L1I TOTAL        ACCESS:  116313482 HIT:  115134977 MISS:    1178505 MSHR_MERGE:     253968
cpu0->cpu0_L1I LOAD         ACCESS:  116313482 HIT:  115134977 MISS:    1178505 MSHR_MERGE:     253968
cpu0->cpu0_L1I RFO          ACCESS:          0 HIT:          0 MISS:          0 MSHR_MERGE:          0
cpu0->cpu0_L1I PREFETCH     ACCESS:          0 HIT:          0 MISS:          0 MSHR_MERGE:          0
cpu0->cpu0_L1I WRITE        ACCESS:          0 HIT:          0 MISS:          0 MSHR_MERGE:          0
cpu0->cpu0_L1I TRANSLATION  ACCESS:          0 HIT:          0 MISS:          0 MSHR_MERGE:          0
cpu0->cpu0_L1I PREFETCH REQUESTED:          0 ISSUED:          0 USEFUL:          0 USELESS:          0
cpu0->cpu0_L1I AVERAGE MISS LATENCY: 7.481 cycles
cpu0->cpu0_L1D TOTAL        ACCESS:  301236415 HIT:  299523750 MISS:    1712665 MSHR_MERGE:     580253
cpu0->cpu0_L1D LOAD         ACCESS:  182167843 HIT:  181428890 MISS:     738953 MSHR_MERGE:     178527
cpu0->cpu0_L1D RFO          ACCESS:          0 HIT:          0 MISS:          0 MSHR_MERGE:          0
cpu0->cpu0_L1D PREFETCH     ACCESS:          0 HIT:          0 MISS:          0 MSHR_MERGE:          0
cpu0->cpu0_L1D WRITE        ACCESS:  118722595 HIT:  118077319 MISS:     645276 MSHR_MERGE:     400869
cpu0->cpu0_L1D TRANSLATION  ACCESS:     345977 HIT:      17541 MISS:     328436 MSHR_MERGE:        857
cpu0->cpu0_L1D PREFETCH REQUESTED:          0 ISSUED:          0 USEFUL:          0 USELESS:          0
cpu0->cpu0_L1D AVERAGE MISS LATENCY: 89.56 cycles
cpu0->cpu0_ITLB TOTAL        ACCESS:   98764811 HIT:   98764811 MISS:          0 MSHR_MERGE:          0
cpu0->cpu0_ITLB LOAD         ACCESS:   98764811 HIT:   98764811 MISS:          0 MSHR_MERGE:          0
cpu0->cpu0_ITLB RFO          ACCESS:          0 HIT:          0 MISS:          0 MSHR_MERGE:          0
cpu0->cpu0_ITLB PREFETCH     ACCESS:          0 HIT:          0 MISS:          0 MSHR_MERGE:          0
cpu0->cpu0_ITLB WRITE        ACCESS:          0 HIT:          0 MISS:          0 MSHR_MERGE:          0
cpu0->cpu0_ITLB TRANSLATION  ACCESS:          0 HIT:          0 MISS:          0 MSHR_MERGE:          0
cpu0->cpu0_ITLB PREFETCH REQUESTED:          0 ISSUED:          0 USEFUL:          0 USELESS:          0
cpu0->cpu0_ITLB AVERAGE MISS LATENCY: - cycles
cpu0->cpu0_DTLB TOTAL        ACCESS:  282088256 HIT:  281599089 MISS:     489167 MSHR_MERGE:     222722
cpu0->cpu0_DTLB LOAD         ACCESS:  282088256 HIT:  281599089 MISS:     489167 MSHR_MERGE:     222722
cpu0->cpu0_DTLB RFO          ACCESS:          0 HIT:          0 MISS:          0 MSHR_MERGE:          0
cpu0->cpu0_DTLB PREFETCH     ACCESS:          0 HIT:          0 MISS:          0 MSHR_MERGE:          0
cpu0->cpu0_DTLB WRITE        ACCESS:          0 HIT:          0 MISS:          0 MSHR_MERGE:          0
cpu0->cpu0_DTLB TRANSLATION  ACCESS:          0 HIT:          0 MISS:          0 MSHR_MERGE:          0
cpu0->cpu0_DTLB PREFETCH REQUESTED:          0 ISSUED:          0 USEFUL:          0 USELESS:          0
cpu0->cpu0_DTLB AVERAGE MISS LATENCY: 392.2 cycles
cpu0->LLC TOTAL        ACCESS:     742975 HIT:      35476 MISS:     707499 MSHR_MERGE:          0
cpu0->LLC LOAD         ACCESS:     286104 HIT:       7579 MISS:     278525 MSHR_MERGE:          0
cpu0->LLC RFO          ACCESS:      12740 HIT:       9098 MISS:       3642 MSHR_MERGE:          0
cpu0->LLC PREFETCH     ACCESS:          0 HIT:          0 MISS:          0 MSHR_MERGE:          0
cpu0->LLC WRITE        ACCESS:     204391 HIT:      10585 MISS:     193806 MSHR_MERGE:          0
cpu0->LLC TRANSLATION  ACCESS:     239740 HIT:       8214 MISS:     231526 MSHR_MERGE:          0
cpu0->LLC PREFETCH REQUESTED:          0 ISSUED:          0 USEFUL:          0 USELESS:          0
cpu0->LLC AVERAGE MISS LATENCY: 120.6 cycles

DRAM Statistics

Channel 0 RQ ROW_BUFFER_HIT:        208
  ROW_BUFFER_MISS:     513485
  AVG DBUS CONGESTED CYCLE: 11.42
Channel 0 WQ ROW_BUFFER_HIT:      11004
  ROW_BUFFER_MISS:     183613
  FULL:          0
Channel 0 REFRESHES ISSUED:      59632
