[VMEM] WARNING: physical memory size is smaller than virtual memory size.
WARNING: option --warmup_instructions is deprecated. Use --warmup-instructions instead.
WARNING: option --simulation_instructions is deprecated. Use --simulation-instructions instead.

*** ChampSim Multicore Out-of-Order Simulator ***
Warmup Instructions: 200000000
Simulation Instructions: 1000000000
Number of CPUs: 1
Page size: 4096

Off-chip DRAM Size: 16 GiB Channels: 1 Width: 64-bit Data Rate: 3205 MT/s
Heartbeat CPU 0 instructions: 10000001 cycles: 2685325 heartbeat IPC: 3.724 cumulative IPC: 3.724 (Simulation time: 00 hr 00 min 51 sec)
Heartbeat CPU 0 instructions: 20000005 cycles: 5363844 heartbeat IPC: 3.733 cumulative IPC: 3.729 (Simulation time: 00 hr 01 min 43 sec)
Heartbeat CPU 0 instructions: 30000005 cycles: 8042324 heartbeat IPC: 3.733 cumulative IPC: 3.73 (Simulation time: 00 hr 02 min 35 sec)
Heartbeat CPU 0 instructions: 40000009 cycles: 10720148 heartbeat IPC: 3.734 cumulative IPC: 3.731 (Simulation time: 00 hr 03 min 28 sec)
Heartbeat CPU 0 instructions: 50000009 cycles: 13398880 heartbeat IPC: 3.733 cumulative IPC: 3.732 (Simulation time: 00 hr 04 min 19 sec)
Heartbeat CPU 0 instructions: 60000012 cycles: 16077017 heartbeat IPC: 3.734 cumulative IPC: 3.732 (Simulation time: 00 hr 05 min 10 sec)
Heartbeat CPU 0 instructions: 70000013 cycles: 18755318 heartbeat IPC: 3.734 cumulative IPC: 3.732 (Simulation time: 00 hr 06 min 02 sec)
Heartbeat CPU 0 instructions: 80000016 cycles: 21434309 heartbeat IPC: 3.733 cumulative IPC: 3.732 (Simulation time: 00 hr 06 min 54 sec)
Heartbeat CPU 0 instructions: 90000017 cycles: 24112313 heartbeat IPC: 3.734 cumulative IPC: 3.733 (Simulation time: 00 hr 07 min 49 sec)
Heartbeat CPU 0 instructions: 100000020 cycles: 26790343 heartbeat IPC: 3.734 cumulative IPC: 3.733 (Simulation time: 00 hr 08 min 42 sec)
Heartbeat CPU 0 instructions: 110000024 cycles: 29468597 heartbeat IPC: 3.734 cumulative IPC: 3.733 (Simulation time: 00 hr 09 min 35 sec)
Heartbeat CPU 0 instructions: 120000027 cycles: 32146885 heartbeat IPC: 3.734 cumulative IPC: 3.733 (Simulation time: 00 hr 10 min 30 sec)
Heartbeat CPU 0 instructions: 130000028 cycles: 34824720 heartbeat IPC: 3.734 cumulative IPC: 3.733 (Simulation time: 00 hr 11 min 23 sec)
Heartbeat CPU 0 instructions: 140000032 cycles: 37503923 heartbeat IPC: 3.732 cumulative IPC: 3.733 (Simulation time: 00 hr 12 min 20 sec)
Heartbeat CPU 0 instructions: 150000032 cycles: 40181822 heartbeat IPC: 3.734 cumulative IPC: 3.733 (Simulation time: 00 hr 13 min 12 sec)
Heartbeat CPU 0 instructions: 160000036 cycles: 42860083 heartbeat IPC: 3.734 cumulative IPC: 3.733 (Simulation time: 00 hr 14 min 05 sec)
Heartbeat CPU 0 instructions: 170000037 cycles: 45538455 heartbeat IPC: 3.734 cumulative IPC: 3.733 (Simulation time: 00 hr 14 min 57 sec)
Heartbeat CPU 0 instructions: 180000039 cycles: 48216274 heartbeat IPC: 3.734 cumulative IPC: 3.733 (Simulation time: 00 hr 15 min 49 sec)
Heartbeat CPU 0 instructions: 190000039 cycles: 50894715 heartbeat IPC: 3.734 cumulative IPC: 3.733 (Simulation time: 00 hr 16 min 42 sec)
Warmup finished CPU 0 instructions: 200000003 cycles: 53573075 cumulative IPC: 3.733 (Simulation time: 00 hr 17 min 33 sec)
Warmup complete CPU 0 instructions: 200000003 cycles: 53573075 cumulative IPC: 3.733 (Simulation time: 00 hr 17 min 33 sec)
Heartbeat CPU 0 instructions: 200000043 cycles: 53573084 heartbeat IPC: 3.734 cumulative IPC: 4.444 (Simulation time: 00 hr 17 min 33 sec)
Heartbeat CPU 0 instructions: 210000044 cycles: 78774371 heartbeat IPC: 0.3968 cumulative IPC: 0.3968 (Simulation time: 00 hr 23 min 16 sec)
Heartbeat CPU 0 instructions: 220000048 cycles: 103978024 heartbeat IPC: 0.3968 cumulative IPC: 0.3968 (Simulation time: 00 hr 29 min 06 sec)
Heartbeat CPU 0 instructions: 230000048 cycles: 129178564 heartbeat IPC: 0.3968 cumulative IPC: 0.3968 (Simulation time: 00 hr 34 min 47 sec)
Heartbeat CPU 0 instructions: 240000052 cycles: 154448554 heartbeat IPC: 0.3957 cumulative IPC: 0.3965 (Simulation time: 00 hr 40 min 38 sec)
Heartbeat CPU 0 instructions: 250000052 cycles: 179680523 heartbeat IPC: 0.3963 cumulative IPC: 0.3965 (Simulation time: 00 hr 46 min 33 sec)
Heartbeat CPU 0 instructions: 260000056 cycles: 204932606 heartbeat IPC: 0.396 cumulative IPC: 0.3964 (Simulation time: 00 hr 52 min 28 sec)
Heartbeat CPU 0 instructions: 270000056 cycles: 227474843 heartbeat IPC: 0.4436 cumulative IPC: 0.4025 (Simulation time: 00 hr 57 min 38 sec)
Heartbeat CPU 0 instructions: 280000059 cycles: 248355866 heartbeat IPC: 0.4789 cumulative IPC: 0.4107 (Simulation time: 01 hr 02 min 27 sec)
Heartbeat CPU 0 instructions: 290000063 cycles: 273709525 heartbeat IPC: 0.3944 cumulative IPC: 0.4088 (Simulation time: 01 hr 08 min 21 sec)
Heartbeat CPU 0 instructions: 300000067 cycles: 299021510 heartbeat IPC: 0.3951 cumulative IPC: 0.4074 (Simulation time: 01 hr 14 min 11 sec)
Heartbeat CPU 0 instructions: 310000067 cycles: 324229444 heartbeat IPC: 0.3967 cumulative IPC: 0.4064 (Simulation time: 01 hr 20 min 03 sec)
Heartbeat CPU 0 instructions: 320000071 cycles: 349491907 heartbeat IPC: 0.3958 cumulative IPC: 0.4055 (Simulation time: 01 hr 25 min 58 sec)
Heartbeat CPU 0 instructions: 330000074 cycles: 374659102 heartbeat IPC: 0.3973 cumulative IPC: 0.4049 (Simulation time: 01 hr 31 min 50 sec)
Heartbeat CPU 0 instructions: 340000075 cycles: 399857872 heartbeat IPC: 0.3968 cumulative IPC: 0.4043 (Simulation time: 01 hr 37 min 36 sec)
Heartbeat CPU 0 instructions: 350000079 cycles: 425136155 heartbeat IPC: 0.3956 cumulative IPC: 0.4037 (Simulation time: 01 hr 43 min 28 sec)
Heartbeat CPU 0 instructions: 360000083 cycles: 450453307 heartbeat IPC: 0.395 cumulative IPC: 0.4031 (Simulation time: 01 hr 49 min 21 sec)
Heartbeat CPU 0 instructions: 370000083 cycles: 475722029 heartbeat IPC: 0.3957 cumulative IPC: 0.4027 (Simulation time: 01 hr 55 min 14 sec)
Heartbeat CPU 0 instructions: 380000087 cycles: 501009062 heartbeat IPC: 0.3955 cumulative IPC: 0.4023 (Simulation time: 02 hr 01 min 08 sec)
Heartbeat CPU 0 instructions: 390000087 cycles: 526219175 heartbeat IPC: 0.3967 cumulative IPC: 0.402 (Simulation time: 02 hr 07 min 04 sec)
Heartbeat CPU 0 instructions: 400000088 cycles: 551394844 heartbeat IPC: 0.3972 cumulative IPC: 0.4018 (Simulation time: 02 hr 12 min 56 sec)
Heartbeat CPU 0 instructions: 410000090 cycles: 576688874 heartbeat IPC: 0.3954 cumulative IPC: 0.4014 (Simulation time: 02 hr 18 min 53 sec)
Heartbeat CPU 0 instructions: 420000094 cycles: 602077572 heartbeat IPC: 0.3939 cumulative IPC: 0.4011 (Simulation time: 02 hr 24 min 44 sec)
Heartbeat CPU 0 instructions: 430000097 cycles: 627287531 heartbeat IPC: 0.3967 cumulative IPC: 0.4009 (Simulation time: 02 hr 30 min 24 sec)
Heartbeat CPU 0 instructions: 440000099 cycles: 652529770 heartbeat IPC: 0.3962 cumulative IPC: 0.4007 (Simulation time: 02 hr 35 min 51 sec)
Heartbeat CPU 0 instructions: 450000101 cycles: 677745573 heartbeat IPC: 0.3966 cumulative IPC: 0.4005 (Simulation time: 02 hr 41 min 23 sec)
Heartbeat CPU 0 instructions: 460000101 cycles: 703105791 heartbeat IPC: 0.3943 cumulative IPC: 0.4003 (Simulation time: 02 hr 47 min 01 sec)
Heartbeat CPU 0 instructions: 470000101 cycles: 728389768 heartbeat IPC: 0.3955 cumulative IPC: 0.4001 (Simulation time: 02 hr 52 min 22 sec)
Heartbeat CPU 0 instructions: 480000105 cycles: 753567106 heartbeat IPC: 0.3972 cumulative IPC: 0.4 (Simulation time: 02 hr 57 min 50 sec)
Heartbeat CPU 0 instructions: 490000105 cycles: 778792885 heartbeat IPC: 0.3964 cumulative IPC: 0.3999 (Simulation time: 03 hr 03 min 30 sec)
Heartbeat CPU 0 instructions: 500000109 cycles: 804065950 heartbeat IPC: 0.3957 cumulative IPC: 0.3997 (Simulation time: 03 hr 08 min 59 sec)
Heartbeat CPU 0 instructions: 510000109 cycles: 829222630 heartbeat IPC: 0.3975 cumulative IPC: 0.3997 (Simulation time: 03 hr 14 min 22 sec)
Heartbeat CPU 0 instructions: 520000112 cycles: 854457566 heartbeat IPC: 0.3963 cumulative IPC: 0.3996 (Simulation time: 03 hr 19 min 59 sec)
Heartbeat CPU 0 instructions: 530000112 cycles: 879750780 heartbeat IPC: 0.3954 cumulative IPC: 0.3994 (Simulation time: 03 hr 25 min 34 sec)
Heartbeat CPU 0 instructions: 540000116 cycles: 904982098 heartbeat IPC: 0.3963 cumulative IPC: 0.3993 (Simulation time: 03 hr 31 min 03 sec)
Heartbeat CPU 0 instructions: 550000119 cycles: 930229690 heartbeat IPC: 0.3961 cumulative IPC: 0.3992 (Simulation time: 03 hr 36 min 42 sec)
Heartbeat CPU 0 instructions: 560000122 cycles: 955417708 heartbeat IPC: 0.397 cumulative IPC: 0.3992 (Simulation time: 03 hr 42 min 07 sec)
Heartbeat CPU 0 instructions: 570000124 cycles: 980655903 heartbeat IPC: 0.3962 cumulative IPC: 0.3991 (Simulation time: 03 hr 47 min 33 sec)
Heartbeat CPU 0 instructions: 580000128 cycles: 1005902673 heartbeat IPC: 0.3961 cumulative IPC: 0.399 (Simulation time: 03 hr 53 min 03 sec)
Heartbeat CPU 0 instructions: 590000128 cycles: 1031178585 heartbeat IPC: 0.3956 cumulative IPC: 0.3989 (Simulation time: 03 hr 58 min 33 sec)
Heartbeat CPU 0 instructions: 600000132 cycles: 1056424620 heartbeat IPC: 0.3961 cumulative IPC: 0.3989 (Simulation time: 04 hr 04 min 01 sec)
Heartbeat CPU 0 instructions: 610000132 cycles: 1081698204 heartbeat IPC: 0.3957 cumulative IPC: 0.3988 (Simulation time: 04 hr 09 min 38 sec)
Heartbeat CPU 0 instructions: 620000135 cycles: 1106874584 heartbeat IPC: 0.3972 cumulative IPC: 0.3987 (Simulation time: 04 hr 15 min 00 sec)
Heartbeat CPU 0 instructions: 630000135 cycles: 1132131435 heartbeat IPC: 0.3959 cumulative IPC: 0.3987 (Simulation time: 04 hr 20 min 30 sec)
Heartbeat CPU 0 instructions: 640000139 cycles: 1157341471 heartbeat IPC: 0.3967 cumulative IPC: 0.3986 (Simulation time: 04 hr 26 min 05 sec)
Heartbeat CPU 0 instructions: 650000142 cycles: 1182630846 heartbeat IPC: 0.3954 cumulative IPC: 0.3986 (Simulation time: 04 hr 31 min 44 sec)
Heartbeat CPU 0 instructions: 660000143 cycles: 1207822555 heartbeat IPC: 0.397 cumulative IPC: 0.3985 (Simulation time: 04 hr 37 min 12 sec)
Heartbeat CPU 0 instructions: 670000147 cycles: 1233118461 heartbeat IPC: 0.3953 cumulative IPC: 0.3985 (Simulation time: 04 hr 42 min 54 sec)
Heartbeat CPU 0 instructions: 680000151 cycles: 1258406018 heartbeat IPC: 0.3955 cumulative IPC: 0.3984 (Simulation time: 04 hr 48 min 19 sec)
Heartbeat CPU 0 instructions: 690000151 cycles: 1283615238 heartbeat IPC: 0.3967 cumulative IPC: 0.3984 (Simulation time: 04 hr 53 min 46 sec)
Heartbeat CPU 0 instructions: 700000155 cycles: 1308895115 heartbeat IPC: 0.3956 cumulative IPC: 0.3983 (Simulation time: 04 hr 59 min 14 sec)
Heartbeat CPU 0 instructions: 710000155 cycles: 1334130604 heartbeat IPC: 0.3963 cumulative IPC: 0.3983 (Simulation time: 05 hr 04 min 40 sec)
Heartbeat CPU 0 instructions: 720000159 cycles: 1359312200 heartbeat IPC: 0.3971 cumulative IPC: 0.3982 (Simulation time: 05 hr 10 min 03 sec)
Heartbeat CPU 0 instructions: 730000159 cycles: 1384561255 heartbeat IPC: 0.3961 cumulative IPC: 0.3982 (Simulation time: 05 hr 15 min 31 sec)
Heartbeat CPU 0 instructions: 740000162 cycles: 1409726956 heartbeat IPC: 0.3974 cumulative IPC: 0.3982 (Simulation time: 05 hr 20 min 51 sec)
Heartbeat CPU 0 instructions: 750000165 cycles: 1434861684 heartbeat IPC: 0.3979 cumulative IPC: 0.3982 (Simulation time: 05 hr 26 min 12 sec)
Heartbeat CPU 0 instructions: 760000166 cycles: 1460080563 heartbeat IPC: 0.3965 cumulative IPC: 0.3981 (Simulation time: 05 hr 31 min 33 sec)
Heartbeat CPU 0 instructions: 770000169 cycles: 1485233152 heartbeat IPC: 0.3976 cumulative IPC: 0.3981 (Simulation time: 05 hr 36 min 54 sec)
Heartbeat CPU 0 instructions: 780000169 cycles: 1510411987 heartbeat IPC: 0.3972 cumulative IPC: 0.3981 (Simulation time: 05 hr 42 min 14 sec)
Heartbeat CPU 0 instructions: 790000169 cycles: 1535572547 heartbeat IPC: 0.3974 cumulative IPC: 0.3981 (Simulation time: 05 hr 47 min 40 sec)
Heartbeat CPU 0 instructions: 800000173 cycles: 1560779387 heartbeat IPC: 0.3967 cumulative IPC: 0.3981 (Simulation time: 05 hr 53 min 01 sec)
Heartbeat CPU 0 instructions: 810000173 cycles: 1585988786 heartbeat IPC: 0.3967 cumulative IPC: 0.3981 (Simulation time: 05 hr 58 min 23 sec)
Heartbeat CPU 0 instructions: 820000177 cycles: 1611194054 heartbeat IPC: 0.3967 cumulative IPC: 0.398 (Simulation time: 06 hr 03 min 45 sec)
Heartbeat CPU 0 instructions: 830000181 cycles: 1636512098 heartbeat IPC: 0.395 cumulative IPC: 0.398 (Simulation time: 06 hr 09 min 07 sec)
Heartbeat CPU 0 instructions: 840000185 cycles: 1661711778 heartbeat IPC: 0.3968 cumulative IPC: 0.398 (Simulation time: 06 hr 14 min 29 sec)
Heartbeat CPU 0 instructions: 850000188 cycles: 1686947369 heartbeat IPC: 0.3963 cumulative IPC: 0.3979 (Simulation time: 06 hr 19 min 53 sec)
Heartbeat CPU 0 instructions: 860000189 cycles: 1712139620 heartbeat IPC: 0.3969 cumulative IPC: 0.3979 (Simulation time: 06 hr 25 min 13 sec)
Heartbeat CPU 0 instructions: 870000192 cycles: 1737469426 heartbeat IPC: 0.3948 cumulative IPC: 0.3979 (Simulation time: 06 hr 30 min 34 sec)
Heartbeat CPU 0 instructions: 880000193 cycles: 1762641850 heartbeat IPC: 0.3973 cumulative IPC: 0.3979 (Simulation time: 06 hr 35 min 53 sec)
Heartbeat CPU 0 instructions: 890000197 cycles: 1788064228 heartbeat IPC: 0.3934 cumulative IPC: 0.3978 (Simulation time: 06 hr 41 min 15 sec)
Heartbeat CPU 0 instructions: 900000201 cycles: 1813408885 heartbeat IPC: 0.3946 cumulative IPC: 0.3978 (Simulation time: 06 hr 46 min 36 sec)
Heartbeat CPU 0 instructions: 910000201 cycles: 1838605367 heartbeat IPC: 0.3969 cumulative IPC: 0.3978 (Simulation time: 06 hr 52 min 00 sec)
Heartbeat CPU 0 instructions: 920000205 cycles: 1863855175 heartbeat IPC: 0.396 cumulative IPC: 0.3977 (Simulation time: 06 hr 57 min 20 sec)
Heartbeat CPU 0 instructions: 930000208 cycles: 1889060550 heartbeat IPC: 0.3967 cumulative IPC: 0.3977 (Simulation time: 07 hr 02 min 42 sec)
Heartbeat CPU 0 instructions: 940000208 cycles: 1914227513 heartbeat IPC: 0.3973 cumulative IPC: 0.3977 (Simulation time: 07 hr 08 min 05 sec)
Heartbeat CPU 0 instructions: 950000211 cycles: 1939427000 heartbeat IPC: 0.3968 cumulative IPC: 0.3977 (Simulation time: 07 hr 13 min 23 sec)
Heartbeat CPU 0 instructions: 960000212 cycles: 1964695890 heartbeat IPC: 0.3957 cumulative IPC: 0.3977 (Simulation time: 07 hr 18 min 43 sec)
Heartbeat CPU 0 instructions: 970000215 cycles: 1989923926 heartbeat IPC: 0.3964 cumulative IPC: 0.3977 (Simulation time: 07 hr 24 min 06 sec)
Heartbeat CPU 0 instructions: 980000216 cycles: 2015179255 heartbeat IPC: 0.396 cumulative IPC: 0.3976 (Simulation time: 07 hr 29 min 29 sec)
Heartbeat CPU 0 instructions: 990000220 cycles: 2040476232 heartbeat IPC: 0.3953 cumulative IPC: 0.3976 (Simulation time: 07 hr 34 min 53 sec)
Heartbeat CPU 0 instructions: 1000000224 cycles: 2065728073 heartbeat IPC: 0.396 cumulative IPC: 0.3976 (Simulation time: 07 hr 40 min 18 sec)
Heartbeat CPU 0 instructions: 1010000224 cycles: 2090978004 heartbeat IPC: 0.396 cumulative IPC: 0.3976 (Simulation time: 07 hr 45 min 41 sec)
Heartbeat CPU 0 instructions: 1020000228 cycles: 2116151595 heartbeat IPC: 0.3972 cumulative IPC: 0.3976 (Simulation time: 07 hr 51 min 03 sec)
Heartbeat CPU 0 instructions: 1030000231 cycles: 2141348872 heartbeat IPC: 0.3969 cumulative IPC: 0.3976 (Simulation time: 07 hr 56 min 27 sec)
Heartbeat CPU 0 instructions: 1040000232 cycles: 2166596369 heartbeat IPC: 0.3961 cumulative IPC: 0.3975 (Simulation time: 08 hr 01 min 57 sec)
Heartbeat CPU 0 instructions: 1050000234 cycles: 2191815221 heartbeat IPC: 0.3965 cumulative IPC: 0.3975 (Simulation time: 08 hr 07 min 24 sec)
Heartbeat CPU 0 instructions: 1060000235 cycles: 2217136878 heartbeat IPC: 0.3949 cumulative IPC: 0.3975 (Simulation time: 08 hr 12 min 52 sec)
Heartbeat CPU 0 instructions: 1070000238 cycles: 2242390083 heartbeat IPC: 0.396 cumulative IPC: 0.3975 (Simulation time: 08 hr 18 min 13 sec)
Heartbeat CPU 0 instructions: 1080000239 cycles: 2267558027 heartbeat IPC: 0.3973 cumulative IPC: 0.3975 (Simulation time: 08 hr 23 min 36 sec)
Heartbeat CPU 0 instructions: 1090000243 cycles: 2292811402 heartbeat IPC: 0.396 cumulative IPC: 0.3975 (Simulation time: 08 hr 28 min 58 sec)
Heartbeat CPU 0 instructions: 1100000243 cycles: 2318145827 heartbeat IPC: 0.3947 cumulative IPC: 0.3974 (Simulation time: 08 hr 34 min 27 sec)
Heartbeat CPU 0 instructions: 1110000243 cycles: 2343458856 heartbeat IPC: 0.3951 cumulative IPC: 0.3974 (Simulation time: 08 hr 39 min 50 sec)
Heartbeat CPU 0 instructions: 1120000246 cycles: 2368724524 heartbeat IPC: 0.3958 cumulative IPC: 0.3974 (Simulation time: 08 hr 45 min 13 sec)
Heartbeat CPU 0 instructions: 1130000246 cycles: 2394026138 heartbeat IPC: 0.3952 cumulative IPC: 0.3974 (Simulation time: 08 hr 50 min 36 sec)
Heartbeat CPU 0 instructions: 1140000250 cycles: 2419252396 heartbeat IPC: 0.3964 cumulative IPC: 0.3973 (Simulation time: 08 hr 55 min 58 sec)
Heartbeat CPU 0 instructions: 1150000253 cycles: 2444420109 heartbeat IPC: 0.3973 cumulative IPC: 0.3973 (Simulation time: 09 hr 01 min 20 sec)
Heartbeat CPU 0 instructions: 1160000253 cycles: 2469739642 heartbeat IPC: 0.395 cumulative IPC: 0.3973 (Simulation time: 09 hr 06 min 47 sec)
Heartbeat CPU 0 instructions: 1170000256 cycles: 2494933309 heartbeat IPC: 0.3969 cumulative IPC: 0.3973 (Simulation time: 09 hr 12 min 13 sec)
Heartbeat CPU 0 instructions: 1180000257 cycles: 2520250271 heartbeat IPC: 0.395 cumulative IPC: 0.3973 (Simulation time: 09 hr 17 min 39 sec)
Heartbeat CPU 0 instructions: 1190000259 cycles: 2545517884 heartbeat IPC: 0.3958 cumulative IPC: 0.3973 (Simulation time: 09 hr 23 min 05 sec)
Simulation finished CPU 0 instructions: 1000000000 cycles: 2517147437 cumulative IPC: 0.3973 (Simulation time: 09 hr 28 min 32 sec)
Simulation complete CPU 0 instructions: 1000000000 cycles: 2517147437 cumulative IPC: 0.3973 (Simulation time: 09 hr 28 min 32 sec)

ChampSim completed all CPUs

=== Simulation ===
CPU 0 runs /home/faculty/p/pgratz/dpc3_traces/649.fotonik3d_s-1176B.champsimtrace.xz

Region of Interest Statistics

CPU 0 cumulative IPC: 0.3973 instructions: 1000000000 cycles: 2517147437
CPU 0 Branch Prediction Accuracy: 99.8% MPKI: 0.03612 Average ROB Occupancy at Mispredict: 93.22
Branch type MPKI
BRANCH_DIRECT_JUMP: 8.9e-05
BRANCH_INDIRECT: 0
BRANCH_CONDITIONAL: 0.028
BRANCH_DIRECT_CALL: 1.6e-05
BRANCH_INDIRECT_CALL: 0
BRANCH_RETURN: 0.008018

cpu0->cpu0_STLB TOTAL        ACCESS:     233540 HIT:      96693 MISS:     136847 MSHR_MERGE:          0
cpu0->cpu0_STLB LOAD         ACCESS:     233540 HIT:      96693 MISS:     136847 MSHR_MERGE:          0
cpu0->cpu0_STLB RFO          ACCESS:          0 HIT:          0 MISS:          0 MSHR_MERGE:          0
cpu0->cpu0_STLB PREFETCH     ACCESS:          0 HIT:          0 MISS:          0 MSHR_MERGE:          0
cpu0->cpu0_STLB WRITE        ACCESS:          0 HIT:          0 MISS:          0 MSHR_MERGE:          0
cpu0->cpu0_STLB TRANSLATION  ACCESS:          0 HIT:          0 MISS:          0 MSHR_MERGE:          0
cpu0->cpu0_STLB PREFETCH REQUESTED:          0 ISSUED:          0 USEFUL:          0 USELESS:          0
cpu0->cpu0_STLB AVERAGE MISS LATENCY: 211.9 cycles
cpu0->cpu0_L2C TOTAL        ACCESS:   21953570 HIT:   12362718 MISS:    9590852 MSHR_MERGE:          0
cpu0->cpu0_L2C LOAD         ACCESS:   13174183 HIT:    3587028 MISS:    9587155 MSHR_MERGE:          0
cpu0->cpu0_L2C RFO          ACCESS:      17295 HIT:      15590 MISS:       1705 MSHR_MERGE:          0
cpu0->cpu0_L2C PREFETCH     ACCESS:          0 HIT:          0 MISS:          0 MSHR_MERGE:          0
cpu0->cpu0_L2C WRITE        ACCESS:    8756647 HIT:    8756647 MISS:          0 MSHR_MERGE:          0
cpu0->cpu0_L2C TRANSLATION  ACCESS:       5445 HIT:       3453 MISS:       1992 MSHR_MERGE:          0
cpu0->cpu0_L2C PREFETCH REQUESTED:          0 ISSUED:          0 USEFUL:          0 USELESS:          0
cpu0->cpu0_L2C AVERAGE MISS LATENCY: 224.5 cycles
cpu0->cpu0_L1I TOTAL        ACCESS:  191047396 HIT:  191046987 MISS:        409 MSHR_MERGE:        132
cpu0->cpu0_L1I LOAD         ACCESS:  191047396 HIT:  191046987 MISS:        409 MSHR_MERGE:        132
cpu0->cpu0_L1I RFO          ACCESS:          0 HIT:          0 MISS:          0 MSHR_MERGE:          0
cpu0->cpu0_L1I PREFETCH     ACCESS:          0 HIT:          0 MISS:          0 MSHR_MERGE:          0
cpu0->cpu0_L1I WRITE        ACCESS:          0 HIT:          0 MISS:          0 MSHR_MERGE:          0
cpu0->cpu0_L1I TRANSLATION  ACCESS:          0 HIT:          0 MISS:          0 MSHR_MERGE:          0
cpu0->cpu0_L1I PREFETCH REQUESTED:          0 ISSUED:          0 USEFUL:          0 USELESS:          0
cpu0->cpu0_L1I AVERAGE MISS LATENCY: 217 cycles
cpu0->cpu0_L1D TOTAL        ACCESS:  320453730 HIT:  262463389 MISS:   57990341 MSHR_MERGE:   44793695
cpu0->cpu0_L1D LOAD         ACCESS:  250009331 HIT:  192080330 MISS:   57929001 MSHR_MERGE:   44755095
cpu0->cpu0_L1D RFO          ACCESS:          0 HIT:          0 MISS:          0 MSHR_MERGE:          0
cpu0->cpu0_L1D PREFETCH     ACCESS:          0 HIT:          0 MISS:          0 MSHR_MERGE:          0
cpu0->cpu0_L1D WRITE        ACCESS:   70307081 HIT:   70251187 MISS:      55894 MSHR_MERGE:      38599
cpu0->cpu0_L1D TRANSLATION  ACCESS:     137318 HIT:     131872 MISS:       5446 MSHR_MERGE:          1
cpu0->cpu0_L1D PREFETCH REQUESTED:          0 ISSUED:          0 USEFUL:          0 USELESS:          0
cpu0->cpu0_L1D AVERAGE MISS LATENCY: 171.9 cycles
cpu0->cpu0_ITLB TOTAL        ACCESS:  156022453 HIT:  156022428 MISS:         25 MSHR_MERGE:         14
cpu0->cpu0_ITLB LOAD         ACCESS:  156022453 HIT:  156022428 MISS:         25 MSHR_MERGE:         14
cpu0->cpu0_ITLB RFO          ACCESS:          0 HIT:          0 MISS:          0 MSHR_MERGE:          0
cpu0->cpu0_ITLB PREFETCH     ACCESS:          0 HIT:          0 MISS:          0 MSHR_MERGE:          0
cpu0->cpu0_ITLB WRITE        ACCESS:          0 HIT:          0 MISS:          0 MSHR_MERGE:          0
cpu0->cpu0_ITLB TRANSLATION  ACCESS:          0 HIT:          0 MISS:          0 MSHR_MERGE:          0
cpu0->cpu0_ITLB PREFETCH REQUESTED:          0 ISSUED:          0 USEFUL:          0 USELESS:          0
cpu0->cpu0_ITLB AVERAGE MISS LATENCY: 494.9 cycles
cpu0->cpu0_DTLB TOTAL        ACCESS:  302330552 HIT:  301423953 MISS:     906599 MSHR_MERGE:     673070
cpu0->cpu0_DTLB LOAD         ACCESS:  302330552 HIT:  301423953 MISS:     906599 MSHR_MERGE:     673070
cpu0->cpu0_DTLB RFO          ACCESS:          0 HIT:          0 MISS:          0 MSHR_MERGE:          0
cpu0->cpu0_DTLB PREFETCH     ACCESS:          0 HIT:          0 MISS:          0 MSHR_MERGE:          0
cpu0->cpu0_DTLB WRITE        ACCESS:          0 HIT:          0 MISS:          0 MSHR_MERGE:          0
cpu0->cpu0_DTLB TRANSLATION  ACCESS:          0 HIT:          0 MISS:          0 MSHR_MERGE:          0
cpu0->cpu0_DTLB PREFETCH REQUESTED:          0 ISSUED:          0 USEFUL:          0 USELESS:          0
cpu0->cpu0_DTLB AVERAGE MISS LATENCY: 129.7 cycles
cpu0->LLC TOTAL        ACCESS:   18329704 HIT:     581106 MISS:   17748598 MSHR_MERGE:          0
cpu0->LLC LOAD         ACCESS:    9587155 HIT:     571796 MISS:    9015359 MSHR_MERGE:          0
cpu0->LLC RFO          ACCESS:       1705 HIT:       1699 MISS:          6 MSHR_MERGE:          0
cpu0->LLC PREFETCH     ACCESS:          0 HIT:          0 MISS:          0 MSHR_MERGE:          0
cpu0->LLC WRITE        ACCESS:    8738852 HIT:       7609 MISS:    8731243 MSHR_MERGE:          0
cpu0->LLC TRANSLATION  ACCESS:       1992 HIT:          2 MISS:       1990 MSHR_MERGE:          0
cpu0->LLC PREFETCH REQUESTED:          0 ISSUED:          0 USEFUL:          0 USELESS:          0
cpu0->LLC AVERAGE MISS LATENCY: 117.1 cycles

DRAM Statistics

Channel 0 RQ ROW_BUFFER_HIT:      90626
  ROW_BUFFER_MISS:    8926708
  AVG DBUS CONGESTED CYCLE: 10.75
Channel 0 WQ ROW_BUFFER_HIT:    3577928
  ROW_BUFFER_MISS:    5157832
  FULL:          0
Channel 0 REFRESHES ISSUED:     209762
